/*---------------------------------------------------------------------------*\
| =========                 |                                                 |
| \\      /  F ield         | OpenFOAM: The Open Source CFD Toolbox           |
|  \\    /   O peration     | Version:  2412                                  |
|   \\  /    A nd           | Website:  www.openfoam.com                      |
|    \\/     M anipulation  |                                                 |
\*---------------------------------------------------------------------------*/
Build  : _2c4871ff-20250317 OPENFOAM=2412 version=2412
Arch   : "LSB;label=32;scalar=64"
Exec   : blockMesh
Date   : May 27 2025
Time   : 17:04:17
Host   : Adam-PC
PID    : 31068
I/O    : uncollated
Case   : /home/adamb/OpenFOAM/adamb-v2412/run/contSpoilTurb3D/Base-Steady
nProcs : 1
trapFpe: Floating point exception trapping enabled (FOAM_SIGFPE).
fileModificationChecking : Monitoring run-time modified files using timeStampMaster (fileModificationSkew 5, maxFileModificationPolls 20)
allowSystemOperations : Allowing user-supplied system call operations

// * * * * * * * * * * * * * * * * * * * * * * * * * * * * * * * * * * * * * //
Create time

Creating block mesh from "system/blockMeshDict"
Using #calc - line 38 in file "system/blockMeshDict"
Using #codeStream with "/home/adamb/OpenFOAM/adamb-v2412/run/contSpoilTurb3D/Base-Steady/dynamicCode/platforms/linux64GccDPInt32Opt/lib/libcodeStream_63296ebc3d79343d7151b6e7d0d4f5ba420b12e6.so"
Using #calc - line 39 in file "system/blockMeshDict"
Using #calc - line 40 in file "system/blockMeshDict"
Using #codeStream with "/home/adamb/OpenFOAM/adamb-v2412/run/contSpoilTurb3D/Base-Steady/dynamicCode/platforms/linux64GccDPInt32Opt/lib/libcodeStream_15a21e04672ff207bdf6eba998b41aa0237d6313.so"
Using #calc - line 41 in file "system/blockMeshDict"
Using #calc - line 44 in file "system/blockMeshDict"
Using #codeStream with "/home/adamb/OpenFOAM/adamb-v2412/run/contSpoilTurb3D/Base-Steady/dynamicCode/platforms/linux64GccDPInt32Opt/lib/libcodeStream_2087b452a81bf7bc80fe2bac758ddf603f713381.so"
Using #calc - line 46 in file "system/blockMeshDict"
Using #codeStream with "/home/adamb/OpenFOAM/adamb-v2412/run/contSpoilTurb3D/Base-Steady/dynamicCode/platforms/linux64GccDPInt32Opt/lib/libcodeStream_7f67fe27499dbbbc3a51c707151f28816f43018e.so"
Using #calc - line 47 in file "system/blockMeshDict"
Using #codeStream with "/home/adamb/OpenFOAM/adamb-v2412/run/contSpoilTurb3D/Base-Steady/dynamicCode/platforms/linux64GccDPInt32Opt/lib/libcodeStream_be15c4beed2f36477289725b7773b51a407bdc79.so"
Using #calc - line 49 in file "system/blockMeshDict"
Using #codeStream with "/home/adamb/OpenFOAM/adamb-v2412/run/contSpoilTurb3D/Base-Steady/dynamicCode/platforms/linux64GccDPInt32Opt/lib/libcodeStream_7a5ed3f879f53499c0fec40d8425ccd5c8fc9322.so"
Using #calc - line 50 in file "system/blockMeshDict"
Using #codeStream with "/home/adamb/OpenFOAM/adamb-v2412/run/contSpoilTurb3D/Base-Steady/dynamicCode/platforms/linux64GccDPInt32Opt/lib/libcodeStream_5e4888716b47d2bf42e320eab90c38d50ea81a38.so"
Using #calc - line 51 in file "system/blockMeshDict"
Using #codeStream with "/home/adamb/OpenFOAM/adamb-v2412/run/contSpoilTurb3D/Base-Steady/dynamicCode/platforms/linux64GccDPInt32Opt/lib/libcodeStream_eee01d70cb21f3ab5458c84a512ad65f0ea693c9.so"
Using #calc - line 52 in file "system/blockMeshDict"
Using #codeStream with "/home/adamb/OpenFOAM/adamb-v2412/run/contSpoilTurb3D/Base-Steady/dynamicCode/platforms/linux64GccDPInt32Opt/lib/libcodeStream_5132617ca3db3d852f7e621e528fda0fc2ff5884.so"
Using #calc - line 54 in file "system/blockMeshDict"
Using #calc - line 56 in file "system/blockMeshDict"
Using #codeStream with "/home/adamb/OpenFOAM/adamb-v2412/run/contSpoilTurb3D/Base-Steady/dynamicCode/platforms/linux64GccDPInt32Opt/lib/libcodeStream_7922d528f2e8d7cdd362e11cbfb5b56621f3b03c.so"
--> FOAM IOWarning :
    Found [v1012] 'convertToMeters' entry instead of 'scale' in dictionary "system/blockMeshDict"

    This keyword is 168 months old.

Creating block edges
No non-planar block faces defined
Creating topology blocks

Creating topology patches - from boundary section

Creating block mesh topology

Check topology

	Basic statistics
		Number of internal faces : 28
		Number of boundary faces : 46
		Number of defined boundary faces : 46
		Number of undefined boundary faces : 0
	Checking patch -> block consistency

Creating block offsets
Creating merge list (topological search)...
Deleting polyMesh directory "constant/polyMesh"

Creating polyMesh from blockMesh
Creating patches
Creating cells
Creating points with scale (1 1 1)
    Block 0 cell size :
        i : 1.41221 .. 0.353052
        j : 1.1987 .. 0.239739
        k : 0.25908 .. 0.25908

    Block 1 cell size :
        i : 0.24384 .. 0.24384
        j : 1.1987 .. 0.239739
        k : 0.25908 .. 0.25908

    Block 2 cell size :
        i : 0.353052 .. 1.41221
        j : 1.1987 .. 0.239739
        k : 0.25908 .. 0.25908

    Block 3 cell size :
        i : 1.41221 .. 0.353052
        j : 1.1987 .. 0.239739
        k : 0.222506 .. 1.78004

    Block 4 cell size :
        i : 0.24384 .. 0.24384
        j : 1.1987 .. 0.239739
        k : 0.222506 .. 1.78004

    Block 5 cell size :
        i : 0.353052 .. 1.41221
        j : 1.1987 .. 0.239739
        k : 0.222506 .. 1.78004

    Block 6 cell size :
        i : 1.41221 .. 0.353052
        j : 0.24384 .. 0.24384
        k : 0.25908 .. 0.25908

    Block 7 cell size :
        i : 0.353052 .. 1.41221
        j : 0.24384 .. 0.24384
        k : 0.25908 .. 0.25908

    Block 8 cell size :
        i : 1.41221 .. 0.353052
        j : 0.24384 .. 0.24384
        k : 0.222506 .. 1.78004

    Block 9 cell size :
        i : 0.24384 .. 0.24384
        j : 0.24384 .. 0.24384
        k : 0.222506 .. 1.78004

    Block 10 cell size :
        i : 0.353052 .. 1.41221
        j : 0.24384 .. 0.24384
        k : 0.222506 .. 1.78004

    Block 11 cell size :
        i : 1.41221 .. 0.353052
        j : 0.239739 .. 1.1987
        k : 0.25908 .. 0.25908

    Block 12 cell size :
        i : 0.24384 .. 0.24384
        j : 0.239739 .. 1.1987
        k : 0.25908 .. 0.25908

    Block 13 cell size :
        i : 0.353052 .. 1.41221
        j : 0.239739 .. 1.1987
        k : 0.25908 .. 0.25908

    Block 14 cell size :
        i : 1.41221 .. 0.353052
        j : 0.239739 .. 1.1987
        k : 0.222506 .. 1.78004

    Block 15 cell size :
        i : 0.24384 .. 0.24384
        j : 0.239739 .. 1.1987
        k : 0.222506 .. 1.78004

    Block 16 cell size :
        i : 0.353052 .. 1.41221
        j : 0.239739 .. 1.1987
        k : 0.222506 .. 1.78004

No patch pairs to merge

Writing polyMesh with 0 cellZones
----------------
Mesh Information
----------------
  boundingBox: (-7.7724 -9.144 -7.7724) (10.2108 9.144 7.7724)
  nPoints: 51986
  nCells: 46500
  nFaces: 144900
  nInternalFaces: 134100
----------------
Patches
----------------
  patch 0 (start: 134100 size: 1800) name: inlet
  patch 1 (start: 135900 size: 1800) name: outlet
  patch 2 (start: 137700 size: 2350) name: container
  patch 3 (start: 140050 size: 1100) name: ground
  patch 4 (start: 141150 size: 1350) name: top
  patch 5 (start: 142500 size: 1200) name: leftSide
  patch 6 (start: 143700 size: 1200) name: rightSide

End

