/*---------------------------------------------------------------------------*\
| =========                 |                                                 |
| \\      /  F ield         | OpenFOAM: The Open Source CFD Toolbox           |
|  \\    /   O peration     | Version:  2412                                  |
|   \\  /    A nd           | Website:  www.openfoam.com                      |
|    \\/     M anipulation  |                                                 |
\*---------------------------------------------------------------------------*/
Build  : _2c4871ff-20250317 OPENFOAM=2412 version=2412
Arch   : "LSB;label=32;scalar=64"
Exec   : decomposePar -constant
Date   : May 27 2025
Time   : 17:04:18
Host   : Adam-PC
PID    : 31074
I/O    : uncollated
Case   : /home/adamb/OpenFOAM/adamb-v2412/run/contSpoilTurb3D/Base-Steady
nProcs : 1
trapFpe: Floating point exception trapping enabled (FOAM_SIGFPE).
fileModificationChecking : Monitoring run-time modified files using timeStampMaster (fileModificationSkew 5, maxFileModificationPolls 20)
allowSystemOperations : Allowing user-supplied system call operations

// * * * * * * * * * * * * * * * * * * * * * * * * * * * * * * * * * * * * * //
Create time



Decomposing mesh

Create mesh

Calculating distribution of cells
Decomposition method hierarchical [8] (region region0)

Finished decomposition in 0 s

Calculating original mesh data

Distributing cells to processors

Distributing faces to processors

Distributing points to processors

Constructing processor meshes

Processor 0
    Number of cells = 5812
    Number of points = 6968
    Number of faces shared with processor 1 = 210
    Number of faces shared with processor 2 = 292
    Number of faces shared with processor 3 = 10
    Number of faces shared with processor 4 = 234
    Number of faces shared with processor 6 = 9
    Number of processor patches = 5
    Number of processor faces = 755
    Number of boundary faces = 1435

Processor 1
    Number of cells = 5812
    Number of points = 6975
    Number of faces shared with processor 0 = 210
    Number of faces shared with processor 3 = 304
    Number of faces shared with processor 5 = 231
    Number of faces shared with processor 7 = 9
    Number of processor patches = 4
    Number of processor faces = 754
    Number of boundary faces = 1450

Processor 2
    Number of cells = 5812
    Number of points = 6935
    Number of faces shared with processor 0 = 292
    Number of faces shared with processor 3 = 306
    Number of faces shared with processor 6 = 267
    Number of processor patches = 3
    Number of processor faces = 865
    Number of boundary faces = 1265

Processor 3
    Number of cells = 5812
    Number of points = 6934
    Number of faces shared with processor 0 = 10
    Number of faces shared with processor 1 = 304
    Number of faces shared with processor 2 = 306
    Number of faces shared with processor 6 = 4
    Number of faces shared with processor 7 = 261
    Number of processor patches = 5
    Number of processor faces = 885
    Number of boundary faces = 1243

Processor 4
    Number of cells = 5813
    Number of points = 6950
    Number of faces shared with processor 0 = 234
    Number of faces shared with processor 5 = 210
    Number of faces shared with processor 6 = 270
    Number of processor patches = 3
    Number of processor faces = 714
    Number of boundary faces = 1440

Processor 5
    Number of cells = 5813
    Number of points = 6951
    Number of faces shared with processor 1 = 231
    Number of faces shared with processor 4 = 210
    Number of faces shared with processor 7 = 271
    Number of processor patches = 3
    Number of processor faces = 712
    Number of boundary faces = 1444

Processor 6
    Number of cells = 5813
    Number of points = 6931
    Number of faces shared with processor 0 = 9
    Number of faces shared with processor 2 = 267
    Number of faces shared with processor 3 = 4
    Number of faces shared with processor 4 = 270
    Number of faces shared with processor 7 = 310
    Number of processor patches = 5
    Number of processor faces = 860
    Number of boundary faces = 1260

Processor 7
    Number of cells = 5813
    Number of points = 6928
    Number of faces shared with processor 1 = 9
    Number of faces shared with processor 3 = 261
    Number of faces shared with processor 5 = 271
    Number of faces shared with processor 6 = 310
    Number of processor patches = 4
    Number of processor faces = 851
    Number of boundary faces = 1263

Number of processor faces = 3198
Max number of cells = 5813 (0.00860215% above average 5812.5)
Max number of processor patches = 5 (25% above average 4)
Max number of faces between processors = 885 (10.6942% above average 799.5)

Time = constant

Processor 0: field transfer
Processor 1: field transfer
Processor 2: field transfer
Processor 3: field transfer
Processor 4: field transfer
Processor 5: field transfer
Processor 6: field transfer
Processor 7: field transfer
Time = 0
Using dynamicCode for patch inlet on field k at line 31 in "/home/adamb/OpenFOAM/adamb-v2412/run/contSpoilTurb3D/Base-Steady/0/k/boundaryField/inlet"


--> FOAM FATAL IO ERROR: (openfoam-2412)
Cannot find patchField entry for container

file: 0/k/boundaryField at line 11 to 21.

    From void Foam::GeometricBoundaryField<Type, PatchField, GeoMesh>::readField(const Internal&, const Foam::dictionary&) [with Type = double; PatchField = Foam::fvPatchField; GeoMesh = Foam::volMesh; Foam::GeometricBoundaryField<Type, PatchField, GeoMesh>::Internal = Foam::DimensionedField<double, Foam::volMesh>]
    in file ./src/OpenFOAM/lnInclude/GeometricBoundaryField.C at line 330.

FOAM exiting

