/*---------------------------------------------------------------------------*\
| =========                 |                                                 |
| \\      /  F ield         | OpenFOAM: The Open Source CFD Toolbox           |
|  \\    /   O peration     | Version:  2412                                  |
|   \\  /    A nd           | Website:  www.openfoam.com                      |
|    \\/     M anipulation  |                                                 |
\*---------------------------------------------------------------------------*/
Build  : _2c4871ff-20250317 OPENFOAM=2412 version=2412
Arch   : "LSB;label=32;scalar=64"
Exec   : decomposePar
Date   : May 27 2025
Time   : 18:09:25
Host   : Adam-PC
PID    : 31383
I/O    : uncollated
Case   : /home/adamb/OpenFOAM/adamb-v2412/run/contSpoilTurb3D/Base-Steady
nProcs : 1
trapFpe: Floating point exception trapping enabled (FOAM_SIGFPE).
fileModificationChecking : Monitoring run-time modified files using timeStampMaster (fileModificationSkew 5, maxFileModificationPolls 20)
allowSystemOperations : Allowing user-supplied system call operations

// * * * * * * * * * * * * * * * * * * * * * * * * * * * * * * * * * * * * * //
Create time



Decomposing mesh

Create mesh

Calculating distribution of cells
Decomposition method hierarchical [8] (region region0)

Finished decomposition in 3.61 s

Calculating original mesh data

Distributing cells to processors

Distributing faces to processors

Distributing points to processors

Constructing processor meshes

Processor 0
    Number of cells = 697636
    Number of points = 736078
    Number of faces shared with processor 1 = 5290
    Number of faces shared with processor 2 = 4613
    Number of faces shared with processor 3 = 1377
    Number of faces shared with processor 4 = 6551
    Number of processor patches = 4
    Number of processor faces = 17831
    Number of boundary faces = 28090

Processor 1
    Number of cells = 697636
    Number of points = 735787
    Number of faces shared with processor 0 = 5290
    Number of faces shared with processor 3 = 6230
    Number of faces shared with processor 5 = 5163
    Number of processor patches = 3
    Number of processor faces = 16683
    Number of boundary faces = 28370

Processor 2
    Number of cells = 697636
    Number of points = 740578
    Number of faces shared with processor 0 = 4613
    Number of faces shared with processor 3 = 8049
    Number of faces shared with processor 6 = 5895
    Number of processor patches = 3
    Number of processor faces = 18557
    Number of boundary faces = 26401

Processor 3
    Number of cells = 697636
    Number of points = 741450
    Number of faces shared with processor 0 = 1377
    Number of faces shared with processor 1 = 6230
    Number of faces shared with processor 2 = 8049
    Number of faces shared with processor 6 = 30
    Number of faces shared with processor 7 = 5887
    Number of processor patches = 5
    Number of processor faces = 21573
    Number of boundary faces = 27712

Processor 4
    Number of cells = 697636
    Number of points = 736076
    Number of faces shared with processor 0 = 6551
    Number of faces shared with processor 5 = 5280
    Number of faces shared with processor 6 = 4591
    Number of faces shared with processor 7 = 1358
    Number of processor patches = 4
    Number of processor faces = 17780
    Number of boundary faces = 28115

Processor 5
    Number of cells = 697637
    Number of points = 735789
    Number of faces shared with processor 1 = 5163
    Number of faces shared with processor 4 = 5280
    Number of faces shared with processor 7 = 6228
    Number of processor patches = 3
    Number of processor faces = 16671
    Number of boundary faces = 28404

Processor 6
    Number of cells = 697637
    Number of points = 740470
    Number of faces shared with processor 2 = 5895
    Number of faces shared with processor 3 = 30
    Number of faces shared with processor 4 = 4591
    Number of faces shared with processor 7 = 7916
    Number of processor patches = 4
    Number of processor faces = 18432
    Number of boundary faces = 26334

Processor 7
    Number of cells = 697637
    Number of points = 741387
    Number of faces shared with processor 3 = 5887
    Number of faces shared with processor 4 = 1358
    Number of faces shared with processor 5 = 6228
    Number of faces shared with processor 6 = 7916
    Number of processor patches = 4
    Number of processor faces = 21389
    Number of boundary faces = 27780

Number of processor faces = 74458
Max number of cells = 697637 (8.95882e-05% above average 697636)
Max number of processor patches = 5 (33.3333% above average 3.75)
Max number of faces between processors = 21573 (15.8935% above average 18614.5)

Time = 0
Using dynamicCode for patch inlet on field k at line 31 in "/home/adamb/OpenFOAM/adamb-v2412/run/contSpoilTurb3D/Base-Steady/0/k/boundaryField/inlet"
Using dynamicCode for patch inlet on field omega at line 31 in "/home/adamb/OpenFOAM/adamb-v2412/run/contSpoilTurb3D/Base-Steady/0/omega/boundaryField/inlet"
Using dynamicCode for patch inlet on field U at line 31 in "/home/adamb/OpenFOAM/adamb-v2412/run/contSpoilTurb3D/Base-Steady/0/U/boundaryField/inlet"

Processor 0: field transfer
Processor 1: field transfer
Processor 2: field transfer
Processor 3: field transfer
Processor 4: field transfer
Processor 5: field transfer
Processor 6: field transfer
Processor 7: field transfer

End

