/*---------------------------------------------------------------------------*\
| =========                 |                                                 |
| \\      /  F ield         | OpenFOAM: The Open Source CFD Toolbox           |
|  \\    /   O peration     | Version:  2406                                  |
|   \\  /    A nd           | Website:  www.openfoam.com                      |
|    \\/     M anipulation  |                                                 |
\*---------------------------------------------------------------------------*/
Build  : _630d60de3b-20240620 OPENFOAM=2406 version=v2406
Arch   : "LSB;label=32;scalar=64"
Exec   : /nopt/nrel/apps/cpu_stack/software/openfoam/openfoam_v2406_craympich/OpenFOAM-v2406/platforms/linux64GccDPInt32Opt/bin/snappyHexMesh -overwrite -parallel
Date   : May 13 2025
Time   : 08:06:19
Host   : x1006c4s5b0n1
PID    : 1393855
I/O    : uncollated
Case   : /scratch/abennett/contSpoil3D/MeshH
nProcs : 40
Hosts  :
(
    (x1006c4s5b0n1 40)
)
Pstream initialized with:
    floatTransfer      : false
    maxCommsSize       : 0
    nProcsSimpleSum    : 0
    nonBlockingExchange: 0 (tuning: 0)
    exchange algorithm : 0
    commsType          : nonBlocking
    polling iterations : 0
trapFpe: Floating point exception trapping enabled (FOAM_SIGFPE).
fileModificationChecking : Monitoring run-time modified files using timeStampMaster (fileModificationSkew 5, maxFileModificationPolls 20)
allowSystemOperations : Allowing user-supplied system call operations

// * * * * * * * * * * * * * * * * * * * * * * * * * * * * * * * * * * * * * //
Create time

Create mesh for time = 0

Read mesh in = 0.18 s

Overall mesh bounding box  : (-38.862 -7.7724 -33.528) (119.024 46.6344 33.528)
Relative tolerance         : 1e-06
Absolute matching distance : 0.000179958

Reading refinement surfaces.
Read refinement surfaces in = 0 s

Reading refinement shells.
Refinement level 1 for all cells inside refinementBoxOuter
Refinement level 2 for all cells inside refinementBoxInner
Read refinement shells in = 0 s

Setting refinement level of surface to be consistent with shells.
For geometry container detected 0 uncached triangles out of 12
For geometry spoiler detected 0 uncached triangles out of 496
Checked shell refinement in = 0 s

Reading features.
Read edgeMesh Container.eMesh
    points      : 8
    edges       : 12
    boundingBox : (0 -7.7724 -3.048) (2.4384 0 3.048)

Refinement level according to distance to "Container.eMesh" (8 points, 12 edges).
    level 2 for all cells within 0 metre.
Read edgeMesh Spoiler.eMesh
    points      : 250
    edges       : 254
    boundingBox : (-0.306245 -1.17842 -2) (1.29394 0.295635 2)

Refinement level according to distance to "Spoiler.eMesh" (250 points, 254 edges).
    level 2 for all cells within 0 metre.
Read features in = 0.02 s


Determining initial surface intersections
-----------------------------------------

Edge intersection testing:
    Number of edges             : 7122450
    Number of edges to retest   : 0
    Number of intersected edges : 0
Edge intersection testing:
    Number of edges             : 7122450
    Number of edges to retest   : 7122450
    Number of intersected edges : 2570
Calculated surface intersections in = 0.21 s

Initial mesh : cells:2355000  faces:7122450  points:2412846  unbalance:0
Cells per refinement level:
    0	2355000
Setting refinement level of surface to be consistent with curvature.
Checked curvature refinement in = 0.01 s


Adding patches for surface regions
----------------------------------

Patch Type                Region                        
----- ----                ------                        
container:

7     wall                container                     

spoiler:

8     wall                spoiler                       

Added patches in = 0.02 s

Edge intersection testing:
    Number of edges             : 7122450
    Number of edges to retest   : 0
    Number of intersected edges : 2570
Decomposition method hierarchical [40]

Refinement phase
----------------

Found point (-1 0 0.5) in cell 49824 on processor 26

Feature refinement iteration 0
------------------------------

Marked for refinement due to explicit features             : 110 cells.
Determined cells to refine in = 0.25 s
Selected for feature refinement : 110 cells (out of 2355000)
Edge intersection testing:
    Number of edges             : 7125405
    Number of edges to retest   : 4777
    Number of intersected edges : 3095
Refined mesh in = 0.25 s
After refinement feature refinement iteration 0 : cells:2355770  faces:7125405  points:2414366  unbalance:0.008112
Cells per refinement level:
    0	2354890
    1	880
Balancing since max unbalance 0.008112 is larger than allowable 0
Balanced mesh in = 0.53 s
After balancing feature refinement iteration 0 : cells:2355770  faces:7125405  points:2414366  unbalance:0.00130318
Cells per refinement level:
    0	2354890
    1	880

Feature refinement iteration 1
------------------------------

Marked for refinement due to explicit features             : 268 cells.
Determined cells to refine in = 0.27 s
Selected for feature refinement : 381 cells (out of 2355770)
Edge intersection testing:
    Number of edges             : 7135161
    Number of edges to retest   : 14657
    Number of intersected edges : 4539
Refined mesh in = 0.22 s
After refinement feature refinement iteration 1 : cells:2358437  faces:7135161  points:2418987  unbalance:0.0267478
Cells per refinement level:
    0	2354731
    1	1930
    2	1776
Balancing since max unbalance 0.0267478 is larger than allowable 0
Balanced mesh in = 0.6 s
After balancing feature refinement iteration 1 : cells:2358437  faces:7135161  points:2418987  unbalance:0.00137506
Cells per refinement level:
    0	2354731
    1	1930
    2	1776

Feature refinement iteration 2
------------------------------

Marked for refinement due to explicit features             : 210 cells.
Determined cells to refine in = 0.25 s
Selected for feature refinement : 260 cells (out of 2358437)
Edge intersection testing:
    Number of edges             : 7141815
    Number of edges to retest   : 11804
    Number of intersected edges : 5007
Refined mesh in = 0.23 s
After refinement feature refinement iteration 2 : cells:2360257  faces:7141815  points:2422144  unbalance:0.0132286
Cells per refinement level:
    0	2354601
    1	2840
    2	2816
Balancing since max unbalance 0.0132286 is larger than allowable 0
Balanced mesh in = 0.52 s
After balancing feature refinement iteration 2 : cells:2360257  faces:7141815  points:2422144  unbalance:0.00150111
Cells per refinement level:
    0	2354601
    1	2840
    2	2816

Feature refinement iteration 3
------------------------------

Marked for refinement due to explicit features             : 132 cells.
Determined cells to refine in = 0.26 s
Selected for feature refinement : 202 cells (out of 2360257)
Edge intersection testing:
    Number of edges             : 7147032
    Number of edges to retest   : 8401
    Number of intersected edges : 5337
Refined mesh in = 0.22 s
After refinement feature refinement iteration 3 : cells:2361671  faces:7147032  points:2424658  unbalance:0.0106065
Cells per refinement level:
    0	2354495
    1	3592
    2	3584
Balancing since max unbalance 0.0106065 is larger than allowable 0
Balanced mesh in = 0.53 s
After balancing feature refinement iteration 3 : cells:2361671  faces:7147032  points:2424658  unbalance:0.00125716
Cells per refinement level:
    0	2354495
    1	3592
    2	3584

Feature refinement iteration 4
------------------------------

Marked for refinement due to explicit features             : 71 cells.
Determined cells to refine in = 0.25 s
Selected for feature refinement : 128 cells (out of 2361671)
Edge intersection testing:
    Number of edges             : 7150299
    Number of edges to retest   : 5243
    Number of intersected edges : 5505
Refined mesh in = 0.22 s
After refinement feature refinement iteration 4 : cells:2362567  faces:7150299  points:2426197  unbalance:0.0109004
Cells per refinement level:
    0	2354437
    1	3986
    2	4144
Balancing since max unbalance 0.0109004 is larger than allowable 0
Balanced mesh in = 0.52 s
After balancing feature refinement iteration 4 : cells:2362567  faces:7150299  points:2426197  unbalance:0.00115425
Cells per refinement level:
    0	2354437
    1	3986
    2	4144

Feature refinement iteration 5
------------------------------

Marked for refinement due to explicit features             : 10 cells.
Determined cells to refine in = 0.26 s
Selected for feature refinement : 10 cells (out of 2362567)
Edge intersection testing:
    Number of edges             : 7150542
    Number of edges to retest   : 588
    Number of intersected edges : 5535
Refined mesh in = 0.22 s
After refinement feature refinement iteration 5 : cells:2362637  faces:7150542  points:2426301  unbalance:0.00123718
Cells per refinement level:
    0	2354437
    1	3976
    2	4224
Balancing since max unbalance 0.00123718 is larger than allowable 0
Balanced mesh in = 0.53 s
After balancing feature refinement iteration 5 : cells:2362637  faces:7150542  points:2426301  unbalance:0.00148859
Cells per refinement level:
    0	2354437
    1	3976
    2	4224

Feature refinement iteration 6
------------------------------

Marked for refinement due to explicit features             : 0 cells.
Determined cells to refine in = 0.27 s
Selected for feature refinement : 0 cells (out of 2362637)
Stopping refining since too few cells selected.


Surface refinement iteration 0
------------------------------

Marked for refinement due to surface intersection          : 5433 cells.
Determined cells to refine in = 0 s
Selected for refinement : 5712 cells (out of 2362637)
Edge intersection testing:
    Number of edges             : 7287330
    Number of edges to retest   : 178603
    Number of intersected edges : 21666
Refined mesh in = 0.26 s
After refinement surface refinement iteration 0 : cells:2402621  faces:7287330  points:2483577  unbalance:0.193347
Cells per refinement level:
    0	2352272
    1	19573
    2	16184
    3	14592
Balancing since max unbalance 0.193347 is larger than allowable 0
Balanced mesh in = 0.66 s
After balancing surface refinement iteration 0 : cells:2402621  faces:7287330  points:2483577  unbalance:0.00185672
Cells per refinement level:
    0	2352272
    1	19573
    2	16184
    3	14592

Surface refinement iteration 1
------------------------------

Marked for refinement due to surface intersection          : 19918 cells.
Determined cells to refine in = 0.02 s
Selected for refinement : 20441 cells (out of 2402621)
Edge intersection testing:
    Number of edges             : 7771647
    Number of edges to retest   : 632598
    Number of intersected edges : 76684
Refined mesh in = 0.44 s
After refinement surface refinement iteration 1 : cells:2545708  faces:7771647  points:2682201  unbalance:0.647165
Cells per refinement level:
    0	2352173
    1	11449
    2	80792
    3	63646
    4	37648
Balancing since max unbalance 0.647165 is larger than allowable 0
Balanced mesh in = 0.7 s
After balancing surface refinement iteration 1 : cells:2545708  faces:7771647  points:2682201  unbalance:0.00109518
Cells per refinement level:
    0	2352173
    1	11449
    2	80792
    3	63646
    4	37648

Surface refinement iteration 2
------------------------------

Marked for refinement due to surface intersection          : 45694 cells.
Determined cells to refine in = 0.05 s
Selected for refinement : 46449 cells (out of 2545708)
Edge intersection testing:
    Number of edges             : 8869467
    Number of edges to retest   : 1466644
    Number of intersected edges : 204354
Refined mesh in = 0.67 s
After refinement surface refinement iteration 2 : cells:2870851  faces:8869467  points:3128894  unbalance:1.06489
Cells per refinement level:
    0	2352143
    1	11376
    2	47768
    3	337292
    4	122272
Balancing since max unbalance 1.06489 is larger than allowable 0
Balanced mesh in = 0.94 s
After balancing surface refinement iteration 2 : cells:2870851  faces:8869467  points:3128894  unbalance:0.00133375
Cells per refinement level:
    0	2352143
    1	11376
    2	47768
    3	337292
    4	122272

Surface refinement iteration 3
------------------------------

Marked for refinement due to surface intersection          : 19504 cells.
Determined cells to refine in = 0.08 s
Selected for refinement : 20368 cells (out of 2870851)
Edge intersection testing:
    Number of edges             : 9336951
    Number of edges to retest   : 636428
    Number of intersected edges : 245926
Refined mesh in = 0.49 s
After refinement surface refinement iteration 3 : cells:3013427  faces:9336951  points:3310625  unbalance:0.365568
Cells per refinement level:
    0	2352143
    1	11316
    2	47444
    3	324220
    4	278304
Balancing since max unbalance 0.365568 is larger than allowable 0
Balanced mesh in = 0.95 s
After balancing surface refinement iteration 3 : cells:3013427  faces:9336951  points:3310625  unbalance:0.00142927
Cells per refinement level:
    0	2352143
    1	11316
    2	47444
    3	324220
    4	278304

Surface refinement iteration 4
------------------------------

Marked for refinement due to surface intersection          : 0 cells.
Determined cells to refine in = 0.05 s
Selected for refinement : 0 cells (out of 3013427)
Stopping refining since too few cells selected.


Removing mesh beyond surface intersections
------------------------------------------

Setting cellZones according to locationsInMesh:
Location : (-1 0 0.5)
    cellZone : none

For cellZone none found point (-1 0 0.5) in global region 0 out of 2 regions.
--> FOAM Warning : 
    From void Foam::meshRefinement::nearestFace(const Foam::labelUList&, const Foam::bitSet&, Foam::autoPtr<Foam::mapDistribute>&, Foam::labelList&, Foam::label) const
    in file meshRefinement/meshRefinement.C at line 515
    Did not visit some faces, e.g. face 0 at (-37.4299 -7.64286 -0.48768)
Keeping all cells containing inside points
Selected for keeping : 2913499 cells.
Edge intersection testing:
    Number of edges             : 9045738
    Number of edges to retest   : 98184
    Number of intersected edges : 245926

Shell refinement iteration 0
----------------------------

Marked for refinement due to distance to explicit features : 0 cells.
Marked for refinement due to refinement shells             : 248459 cells.
Determined cells to refine in = 1.18 s
Selected for internal refinement : 284266 cells (out of 2913499)
Edge intersection testing:
    Number of edges             : 15057603
    Number of edges to retest   : 7591898
    Number of intersected edges : 248506
Refined mesh in = 0.79 s
After refinement shell refinement iteration 0 : cells:4903361  faces:15057603  points:5251504  unbalance:0.917852
Cells per refinement level:
    0	2115000
    1	1897144
    2	116518
    3	427635
    4	347064
Balancing since max unbalance 0.917852 is larger than allowable 0
Balanced mesh in = 1.22 s
After balancing shell refinement iteration 0 : cells:4903361  faces:15057603  points:5251504  unbalance:0.00143555
Cells per refinement level:
    0	2115000
    1	1897144
    2	116518
    3	427635
    4	347064

Shell refinement iteration 1
----------------------------

Marked for refinement due to distance to explicit features : 0 cells.
Marked for refinement due to refinement shells             : 52056 cells.
Determined cells to refine in = 0.14 s
Selected for internal refinement : 58451 cells (out of 4903361)
Edge intersection testing:
    Number of edges             : 16292400
    Number of edges to retest   : 1805426
    Number of intersected edges : 248518
Refined mesh in = 0.61 s
After refinement shell refinement iteration 1 : cells:5312518  faces:16292400  points:5667976  unbalance:0.198972
Cells per refinement level:
    0	2115000
    1	1845088
    2	530443
    3	443947
    4	378040
Balancing since max unbalance 0.198972 is larger than allowable 0
Balanced mesh in = 1.41 s
After balancing shell refinement iteration 1 : cells:5312518  faces:16292400  points:5667976  unbalance:0.0011968
Cells per refinement level:
    0	2115000
    1	1845088
    2	530443
    3	443947
    4	378040

Shell refinement iteration 2
----------------------------

Marked for refinement due to distance to explicit features : 0 cells.
Marked for refinement due to refinement shells             : 0 cells.
Determined cells to refine in = 0.14 s
Selected for internal refinement : 1012 cells (out of 5312518)
Edge intersection testing:
    Number of edges             : 16313817
    Number of edges to retest   : 56374
    Number of intersected edges : 248518
Refined mesh in = 0.54 s
After refinement shell refinement iteration 2 : cells:5319602  faces:16313817  points:5675226  unbalance:0.0212343
Cells per refinement level:
    0	2115000
    1	1845088
    2	529538
    3	451080
    4	378896
Balancing since max unbalance 0.0212343 is larger than allowable 0
Balanced mesh in = 1.39 s
After balancing shell refinement iteration 2 : cells:5319602  faces:16313817  points:5675226  unbalance:0.00115836
Cells per refinement level:
    0	2115000
    1	1845088
    2	529538
    3	451080
    4	378896

Shell refinement iteration 3
----------------------------

Marked for refinement due to distance to explicit features : 0 cells.
Marked for refinement due to refinement shells             : 0 cells.
Determined cells to refine in = 0.15 s
Selected for internal refinement : 34 cells (out of 5319602)
Edge intersection testing:
    Number of edges             : 16314435
    Number of edges to retest   : 2779
    Number of intersected edges : 248518
Refined mesh in = 0.49 s
After refinement shell refinement iteration 3 : cells:5319840  faces:16314435  points:5675376  unbalance:0.0016617
Cells per refinement level:
    0	2115000
    1	1845088
    2	529537
    3	451055
    4	379160
Balancing since max unbalance 0.0016617 is larger than allowable 0
Balanced mesh in = 1.18 s
After balancing shell refinement iteration 3 : cells:5319840  faces:16314435  points:5675376  unbalance:0.00120304
Cells per refinement level:
    0	2115000
    1	1845088
    2	529537
    3	451055
    4	379160

Shell refinement iteration 4
----------------------------

Marked for refinement due to distance to explicit features : 0 cells.
Marked for refinement due to refinement shells             : 0 cells.
Determined cells to refine in = 0.16 s
Selected for internal refinement : 0 cells (out of 5319840)
Stopping refining since too few cells selected.


Dangling coarse cells refinement iteration 0
--------------------------------------------

Determined cells to refine in = 0 s
Selected for refinement : 0 cells (out of 5319840)
Stopping refining since too few cells selected.


Dangling coarse cells refinement iteration 0
--------------------------------------------

Determined cells to refine in = 0.02 s
Selected for refinement : 0 cells (out of 5319840)
Stopping refining since too few cells selected.


Refinement transition refinement iteration 0
--------------------------------------------

Determined cells to refine in = 0 s
Selected for refinement : 0 cells (out of 5319840)
Stopping refining since too few cells selected.


Splitting mesh at surface intersections
---------------------------------------

Introducing baffles for 248518 faces that are intersected by the surface.

Setting cellZones according to locationsInMesh:
Location : (-1 0 0.5)
    cellZone : none

For cellZone none found point (-1 0 0.5) in global region 0 out of 2 regions.
Edge intersection testing:
    Number of edges             : 16377819
    Number of edges to retest   : 1166686
    Number of intersected edges : 311902
Created baffles in = 2.08 s


After introducing baffles : cells:5319840  faces:16377819  points:5682303  unbalance:0.00120304
Cells per refinement level:
    0	2115000
    1	1845088
    2	529537
    3	451055
    4	379160

Introducing baffles to block off problem cells
----------------------------------------------

markFacesOnProblemCells : marked 198327 additional internal faces to be converted into baffles.
Analyzed problem cells in = 0.4 s


Introducing baffles to delete problem cells.

Edge intersection testing:
    Number of edges             : 16575238
    Number of edges to retest   : 600583
    Number of intersected edges : 311902
Created baffles in = 0.53 s


After introducing baffles : cells:5319840  faces:16575238  points:5683655  unbalance:0.00120304
Cells per refinement level:
    0	2115000
    1	1845088
    2	529537
    3	451055
    4	379160
Setting cellZones according to locationsInMesh:
Location : (-1 0 0.5)
    cellZone : none

For cellZone none found point (-1 0 0.5) in global region 0 out of 98378 regions.
Edge intersection testing:
    Number of edges             : 16575238
    Number of edges to retest   : 1331548
    Number of intersected edges : 311902

Remove unreachable sections of mesh
-----------------------------------

Keeping all cells containing points 1((-1 0 0.5))
Selected for keeping : 5215962 cells.
Edge intersection testing:
    Number of edges             : 15963862
    Number of edges to retest   : 0
    Number of intersected edges : 207384
Split mesh in = 2.85 s


After subsetting : cells:5215962  faces:15963862  points:5532969  unbalance:0.241175
Cells per refinement level:
    0	2115000
    1	1845088
    2	529537
    3	451055
    4	275282

Introducing zones for interfaces
--------------------------------

Setting cellZones according to locationsInMesh:
Location : (-1 0 0.5)
    cellZone : none

For cellZone none found point (-1 0 0.5) in global region 0 out of 1 regions.
Setting faceZones according to neighbouring cellZones:

Edge intersection testing:
    Number of edges             : 15963862
    Number of edges to retest   : 0
    Number of intersected edges : 207384

Handling cells with snap problems
---------------------------------

Introducing baffles for 207384 faces that are intersected by the surface.

Setting cellZones according to locationsInMesh:
Location : (-1 0 0.5)
    cellZone : none

For cellZone none found point (-1 0 0.5) in global region 0 out of 1 regions.
Edge intersection testing:
    Number of edges             : 15963862
    Number of edges to retest   : 793998
    Number of intersected edges : 207384
Created baffles in = 3.84 s


After introducing baffles : cells:5215962  faces:15963862  points:5532969  unbalance:0.241175
Cells per refinement level:
    0	2115000
    1	1845088
    2	529537
    3	451055
    4	275282

Introducing baffles to block off problem cells
----------------------------------------------

markFacesOnProblemCells : marked 0 additional internal faces to be converted into baffles.
Analyzed problem cells in = 0.35 s


Introducing baffles to delete problem cells.

Created baffles in = 0.03 s


After introducing baffles : cells:5215962  faces:15963862  points:5532969  unbalance:0.241175
Cells per refinement level:
    0	2115000
    1	1845088
    2	529537
    3	451055
    4	275282
Setting cellZones according to locationsInMesh:
Location : (-1 0 0.5)
    cellZone : none

For cellZone none found point (-1 0 0.5) in global region 0 out of 1 regions.
Edge intersection testing:
    Number of edges             : 15963862
    Number of edges to retest   : 793998
    Number of intersected edges : 207384

Remove unreachable sections of mesh
-----------------------------------

Split mesh in = 1.84 s


After subsetting : cells:5215962  faces:15963862  points:5532969  unbalance:0.241175
Cells per refinement level:
    0	2115000
    1	1845088
    2	529537
    3	451055
    4	275282

Merge free-standing baffles
---------------------------

freeStandingBaffles : detected 0 free-standing baffles out of 0

Detected free-standing baffles : 0
Merged free-standing baffles in = 0.17 s


dupNonManifoldPoints : Found : 0 non-manifold points (out of 5837646)
Detected unsplittable baffles : 0

Merge refined boundary faces
----------------------------

Merging 0 sets of faces.

No faces merged ...

Merging all points on surface that
- are used by only two boundary faces and
- make an angle with a cosine of more than 0.707107.

No straight edges simplified and no points removed ...

Doing final balancing
---------------------

Found 0 zoned faces to keep together.
Found 0 separated coupled faces to keep together.
Refined mesh : cells:5215962  faces:15963862  points:5532969  unbalance:0.00128874
Cells per refinement level:
    0	2115000
    1	1845088
    2	529537
    3	451055
    4	275282
Writing mesh to time constant
Wrote mesh in = 0.37 s.
Mesh refined in = 35.08 s.

Morphing phase
--------------

Duplicating 0 points on faceZones of type boundary
Snapping to features in 100 iterations ...
Constructing mesh displacer ...
Using mesh parameters 
{
    maxNonOrtho     75;
    maxBoundarySkewness 4;
    maxInternalSkewness 4;
    maxConcave      80;
    minVol          1e-13;
    minTetQuality   -1e+30;
    minArea         -1;
    minTwist        0.02;
    minDeterminant  0.001;
    minFaceWeight   0.05;
    minVolRatio     0.01;
    minTriangleTwist -1;
    errorReduction  0.75;
    nSmoothScale    4;
}


Checking initial mesh ...
Checking faces in error :
    non-orthogonality > 75  degrees                        : 0
    faces with face pyramid volume < 1e-13                 : 0
    faces with concavity > 80  degrees                     : 0
    faces with skewness > 4   (internal) or 4   (boundary) : 0
    faces with interpolation weights (0..1)  < 0.05        : 0
    faces with volume ratio of neighbour cells < 0.01      : 0
    faces with face twist < 0.02                           : 0
    faces on cells with determinant < 0.001                : 0
Detected 0 illegal faces (concave, zero area or negative cell pyramid volume)
Checked initial mesh in = 2.24 s


Smoothing patch points ...
Smoothing iteration 0
Found 0 non-manifold point(s).

Scaling iteration 0
Moving mesh using displacement scaling : min:1  max:1
Checking faces in error :
    non-orthogonality > 75  degrees                        : 0
    faces with face pyramid volume < 1e-13                 : 0
    faces with concavity > 80  degrees                     : 0
    faces with skewness > 4   (internal) or 4   (boundary) : 0
    faces with interpolation weights (0..1)  < 0.05        : 0
    faces with volume ratio of neighbour cells < 0.01      : 0
    faces with face twist < 0.02                           : 0
    faces on cells with determinant < 0.001                : 0
Successfully moved mesh

Smoothing iteration 1
Found 0 non-manifold point(s).

Scaling iteration 0
Moving mesh using displacement scaling : min:1  max:1
Checking faces in error :
    non-orthogonality > 75  degrees                        : 0
    faces with face pyramid volume < 1e-13                 : 0
    faces with concavity > 80  degrees                     : 0
    faces with skewness > 4   (internal) or 4   (boundary) : 0
    faces with interpolation weights (0..1)  < 0.05        : 0
    faces with volume ratio of neighbour cells < 0.01      : 0
    faces with face twist < 0.02                           : 0
    faces on cells with determinant < 0.001                : 0
Successfully moved mesh

Smoothing iteration 2
Found 0 non-manifold point(s).

Scaling iteration 0
Moving mesh using displacement scaling : min:1  max:1
Checking faces in error :
    non-orthogonality > 75  degrees                        : 0
    faces with face pyramid volume < 1e-13                 : 0
    faces with concavity > 80  degrees                     : 0
    faces with skewness > 4   (internal) or 4   (boundary) : 0
    faces with interpolation weights (0..1)  < 0.05        : 0
    faces with volume ratio of neighbour cells < 0.01      : 0
    faces with face twist < 0.02                           : 0
    faces on cells with determinant < 0.001                : 0
Successfully moved mesh

Smoothing iteration 3
Found 0 non-manifold point(s).

Scaling iteration 0
Moving mesh using displacement scaling : min:1  max:1
Checking faces in error :
    non-orthogonality > 75  degrees                        : 0
    faces with face pyramid volume < 1e-13                 : 0
    faces with concavity > 80  degrees                     : 0
    faces with skewness > 4   (internal) or 4   (boundary) : 0
    faces with interpolation weights (0..1)  < 0.05        : 0
    faces with volume ratio of neighbour cells < 0.01      : 0
    faces with face twist < 0.02                           : 0
    faces on cells with determinant < 0.001                : 0
Successfully moved mesh

Smoothing iteration 4
Found 0 non-manifold point(s).

Scaling iteration 0
Moving mesh using displacement scaling : min:1  max:1
Checking faces in error :
    non-orthogonality > 75  degrees                        : 0
    faces with face pyramid volume < 1e-13                 : 0
    faces with concavity > 80  degrees                     : 0
    faces with skewness > 4   (internal) or 4   (boundary) : 0
    faces with interpolation weights (0..1)  < 0.05        : 0
    faces with volume ratio of neighbour cells < 0.01      : 0
    faces with face twist < 0.02                           : 0
    faces on cells with determinant < 0.001                : 0
Successfully moved mesh

Smoothing iteration 5
Found 0 non-manifold point(s).

Scaling iteration 0
Moving mesh using displacement scaling : min:1  max:1
Checking faces in error :
    non-orthogonality > 75  degrees                        : 0
    faces with face pyramid volume < 1e-13                 : 0
    faces with concavity > 80  degrees                     : 0
    faces with skewness > 4   (internal) or 4   (boundary) : 0
    faces with interpolation weights (0..1)  < 0.05        : 0
    faces with volume ratio of neighbour cells < 0.01      : 0
    faces with face twist < 0.02                           : 0
    faces on cells with determinant < 0.001                : 0
Successfully moved mesh

Smoothing iteration 6
Found 0 non-manifold point(s).

Scaling iteration 0
Moving mesh using displacement scaling : min:1  max:1
Checking faces in error :
    non-orthogonality > 75  degrees                        : 0
    faces with face pyramid volume < 1e-13                 : 0
    faces with concavity > 80  degrees                     : 0
    faces with skewness > 4   (internal) or 4   (boundary) : 0
    faces with interpolation weights (0..1)  < 0.05        : 0
    faces with volume ratio of neighbour cells < 0.01      : 0
    faces with face twist < 0.02                           : 0
    faces on cells with determinant < 0.001                : 0
Successfully moved mesh

Smoothing iteration 7
Found 0 non-manifold point(s).

Scaling iteration 0
Moving mesh using displacement scaling : min:1  max:1
Checking faces in error :
    non-orthogonality > 75  degrees                        : 0
    faces with face pyramid volume < 1e-13                 : 0
    faces with concavity > 80  degrees                     : 0
    faces with skewness > 4   (internal) or 4   (boundary) : 0
    faces with interpolation weights (0..1)  < 0.05        : 0
    faces with volume ratio of neighbour cells < 0.01      : 0
    faces with face twist < 0.02                           : 0
    faces on cells with determinant < 0.001                : 0
Successfully moved mesh

Smoothing iteration 8
Found 0 non-manifold point(s).

Scaling iteration 0
Moving mesh using displacement scaling : min:1  max:1
Checking faces in error :
    non-orthogonality > 75  degrees                        : 0
    faces with face pyramid volume < 1e-13                 : 0
    faces with concavity > 80  degrees                     : 0
    faces with skewness > 4   (internal) or 4   (boundary) : 0
    faces with interpolation weights (0..1)  < 0.05        : 0
    faces with volume ratio of neighbour cells < 0.01      : 0
    faces with face twist < 0.02                           : 0
    faces on cells with determinant < 0.001                : 0
Successfully moved mesh

Smoothing iteration 9
Found 0 non-manifold point(s).

Scaling iteration 0
Moving mesh using displacement scaling : min:1  max:1
Checking faces in error :
    non-orthogonality > 75  degrees                        : 0
    faces with face pyramid volume < 1e-13                 : 0
    faces with concavity > 80  degrees                     : 0
    faces with skewness > 4   (internal) or 4   (boundary) : 0
    faces with interpolation weights (0..1)  < 0.05        : 0
    faces with volume ratio of neighbour cells < 0.01      : 0
    faces with face twist < 0.02                           : 0
    faces on cells with determinant < 0.001                : 0
Successfully moved mesh

Patch points smoothed in = 2.75 s



Morph iteration 0
-----------------
Calculating patchDisplacement as distance to nearest surface point ...
    non-zone points : attract to nearest of all non-zone surfaces
    zone points     : attract to zone surface only

Wanted displacement : average:0.0115646 min:9.76563e-08 max:0.0165487
Calculated surface displacement in = 0.02 s


Detecting near surfaces ...
Overriding nearest with intersection of close gaps at 0 out of 210530 points.
Overriding displacement on features :
   implicit features    : true
   explicit features    : false
   multi-patch features : false

Attraction:
    linear   : max:(-0.0165487 0 -3.33067e-16) avg:(0.000582054 -0.00105749 -5.96535e-19)
    feature  : max:(-0.0145083 0.0190707 0.0172678) avg:(0.000558442 -0.00101848 -4.51166e-18)
Feature analysis : total master points :207887 of which attracted to :
    feature point   : 16
    feature edge    : 3494
    nearest surface : 204377
    rest            : 0

Smoothing displacement ...
Iteration 0
Iteration 10
Iteration 20
Iteration 30
Iteration 40
Iteration 50
Iteration 60
Iteration 70
Iteration 80
Iteration 90
Displacement smoothed in = 1.94 s


Moving mesh ...

Iteration 0
Moving mesh using displacement scaling : min:1  max:1
Checking faces in error :
    non-orthogonality > 75  degrees                        : 0
    faces with face pyramid volume < 1e-13                 : 0
    faces with concavity > 80  degrees                     : 0
    faces with skewness > 4   (internal) or 4   (boundary) : 0
    faces with interpolation weights (0..1)  < 0.05        : 0
    faces with volume ratio of neighbour cells < 0.01      : 0
    faces with face twist < 0.02                           : 0
    faces on cells with determinant < 0.001                : 0
Successfully moved mesh
Moved mesh in = 0.24 s



Morph iteration 1
-----------------
Calculating patchDisplacement as distance to nearest surface point ...
    non-zone points : attract to nearest of all non-zone surfaces
    zone points     : attract to zone surface only

Wanted displacement : average:0.0114517 min:9.76563e-08 max:0.0163852
Calculated surface displacement in = 0.03 s


Detecting near surfaces ...
Overriding nearest with intersection of close gaps at 0 out of 210530 points.
Overriding displacement on features :
   implicit features    : true
   explicit features    : false
   multi-patch features : false

Attraction:
    linear   : max:(-0.0163852 1.66533e-16 4.44089e-16) avg:(0.000575808 -0.00104711 5.36203e-17)
    feature  : max:(-0.0143632 0.0190688 0.0172661) avg:(0.000552109 -0.00100834 5.38188e-08)
Feature analysis : total master points :207887 of which attracted to :
    feature point   : 16
    feature edge    : 3494
    nearest surface : 204377
    rest            : 0

Smoothing displacement ...
Iteration 0
Iteration 10
Iteration 20
Iteration 30
Iteration 40
Iteration 50
Iteration 60
Iteration 70
Iteration 80
Iteration 90
Displacement smoothed in = 1.9 s


Moving mesh ...

Iteration 0
Moving mesh using displacement scaling : min:1  max:1
Checking faces in error :
    non-orthogonality > 75  degrees                        : 0
    faces with face pyramid volume < 1e-13                 : 0
    faces with concavity > 80  degrees                     : 0
    faces with skewness > 4   (internal) or 4   (boundary) : 0
    faces with interpolation weights (0..1)  < 0.05        : 0
    faces with volume ratio of neighbour cells < 0.01      : 0
    faces with face twist < 0.02                           : 0
    faces on cells with determinant < 0.001                : 0
Successfully moved mesh
Moved mesh in = 0.23 s



Morph iteration 2
-----------------
Calculating patchDisplacement as distance to nearest surface point ...
    non-zone points : attract to nearest of all non-zone surfaces
    zone points     : attract to zone surface only

Wanted displacement : average:0.0112279 min:9.76563e-08 max:0.0160676
Calculated surface displacement in = 0.03 s


Detecting near surfaces ...
Overriding nearest with intersection of close gaps at 0 out of 210530 points.
Overriding displacement on features :
   implicit features    : true
   explicit features    : false
   multi-patch features : false

Attraction:
    linear   : max:(-0.0160676 -1.36002e-15 -1.33227e-15) avg:(0.000563454 -0.00102657 -3.79657e-18)
    feature  : max:(-0.0140759 0.0190612 0.0172592) avg:(0.000539711 -0.000987912 -1.68362e-11)
Feature analysis : total master points :207887 of which attracted to :
    feature point   : 16
    feature edge    : 3494
    nearest surface : 204377
    rest            : 0

Smoothing displacement ...
Iteration 0
Iteration 10
Iteration 20
Iteration 30
Iteration 40
Iteration 50
Iteration 60
Iteration 70
Iteration 80
Iteration 90
Displacement smoothed in = 1.88 s


Moving mesh ...

Iteration 0
Moving mesh using displacement scaling : min:1  max:1
Checking faces in error :
    non-orthogonality > 75  degrees                        : 0
    faces with face pyramid volume < 1e-13                 : 0
    faces with concavity > 80  degrees                     : 0
    faces with skewness > 4   (internal) or 4   (boundary) : 0
    faces with interpolation weights (0..1)  < 0.05        : 0
    faces with volume ratio of neighbour cells < 0.01      : 0
    faces with face twist < 0.02                           : 0
    faces on cells with determinant < 0.001                : 0
Successfully moved mesh
Moved mesh in = 0.22 s



Morph iteration 3
-----------------
Calculating patchDisplacement as distance to nearest surface point ...
    non-zone points : attract to nearest of all non-zone surfaces
    zone points     : attract to zone surface only

Wanted displacement : average:0.0108988 min:9.76563e-08 max:0.0156217
Calculated surface displacement in = 0.03 s


Detecting near surfaces ...
Overriding nearest with intersection of close gaps at 0 out of 210530 points.
Overriding displacement on features :
   implicit features    : true
   explicit features    : false
   multi-patch features : false

Attraction:
    linear   : max:(-0.0156217 -1.69309e-15 0) avg:(0.000545322 -0.000996366 1.15019e-16)
    feature  : max:(-0.0136536 0.019044 0.0172437) avg:(0.000521499 -0.000957926 -1.68217e-11)
Feature analysis : total master points :207887 of which attracted to :
    feature point   : 16
    feature edge    : 3494
    nearest surface : 204377
    rest            : 0

Smoothing displacement ...
Iteration 0
Iteration 10
Iteration 20
Iteration 30
Iteration 40
Iteration 50
Iteration 60
Iteration 70
Iteration 80
Iteration 90
Displacement smoothed in = 1.94 s


Moving mesh ...

Iteration 0
Moving mesh using displacement scaling : min:1  max:1
Checking faces in error :
    non-orthogonality > 75  degrees                        : 0
    faces with face pyramid volume < 1e-13                 : 0
    faces with concavity > 80  degrees                     : 0
    faces with skewness > 4   (internal) or 4   (boundary) : 0
    faces with interpolation weights (0..1)  < 0.05        : 0
    faces with volume ratio of neighbour cells < 0.01      : 0
    faces with face twist < 0.02                           : 0
    faces on cells with determinant < 0.001                : 0
Successfully moved mesh
Moved mesh in = 0.23 s



Morph iteration 4
-----------------
Calculating patchDisplacement as distance to nearest surface point ...
    non-zone points : attract to nearest of all non-zone surfaces
    zone points     : attract to zone surface only

Wanted displacement : average:0.010473 min:9.76563e-08 max:0.0150646
Calculated surface displacement in = 0.03 s


Detecting near surfaces ...
Overriding nearest with intersection of close gaps at 0 out of 210530 points.
Overriding displacement on features :
   implicit features    : true
   explicit features    : false
   multi-patch features : false

Attraction:
    linear   : max:(-0.0150646 -9.71445e-16 -4.44089e-16) avg:(0.000521919 -0.000957285 4.08984e-16)
    feature  : max:(-0.0131075 0.0190135 0.0172161) avg:(0.000498146 -0.000919156 5.40507e-08)
Feature analysis : total master points :207887 of which attracted to :
    feature point   : 16
    feature edge    : 3494
    nearest surface : 204377
    rest            : 0

Smoothing displacement ...
Iteration 0
Iteration 10
Iteration 20
Iteration 30
Iteration 40
Iteration 50
Iteration 60
Iteration 70
Iteration 80
Iteration 90
Displacement smoothed in = 1.9 s


Moving mesh ...

Iteration 0
Moving mesh using displacement scaling : min:1  max:1
Checking faces in error :
    non-orthogonality > 75  degrees                        : 0
    faces with face pyramid volume < 1e-13                 : 0
    faces with concavity > 80  degrees                     : 0
    faces with skewness > 4   (internal) or 4   (boundary) : 0
    faces with interpolation weights (0..1)  < 0.05        : 0
    faces with volume ratio of neighbour cells < 0.01      : 0
    faces with face twist < 0.02                           : 0
    faces on cells with determinant < 0.001                : 0
Successfully moved mesh
Moved mesh in = 0.22 s



Morph iteration 5
-----------------
Calculating patchDisplacement as distance to nearest surface point ...
    non-zone points : attract to nearest of all non-zone surfaces
    zone points     : attract to zone surface only

Wanted displacement : average:0.00996157 min:9.76563e-08 max:0.0144354
Calculated surface displacement in = 0.03 s


Detecting near surfaces ...
Overriding nearest with intersection of close gaps at 0 out of 210530 points.
Overriding displacement on features :
   implicit features    : true
   explicit features    : false
   multi-patch features : false

Attraction:
    linear   : max:(-0.0144354 5.82867e-16 8.88178e-16) avg:(0.000493905 -0.00091036 6.01303e-16)
    feature  : max:(-0.0124521 0.018966 0.017173) avg:(0.000469809 -0.0008726 5.32491e-08)
Feature analysis : total master points :207887 of which attracted to :
    feature point   : 16
    feature edge    : 3494
    nearest surface : 204377
    rest            : 0

Smoothing displacement ...
Iteration 0
Iteration 10
Iteration 20
Iteration 30
Iteration 40
Iteration 50
Iteration 60
Iteration 70
Iteration 80
Iteration 90
Displacement smoothed in = 1.88 s


Moving mesh ...

Iteration 0
Moving mesh using displacement scaling : min:1  max:1
Checking faces in error :
    non-orthogonality > 75  degrees                        : 0
    faces with face pyramid volume < 1e-13                 : 0
    faces with concavity > 80  degrees                     : 0
    faces with skewness > 4   (internal) or 4   (boundary) : 0
    faces with interpolation weights (0..1)  < 0.05        : 0
    faces with volume ratio of neighbour cells < 0.01      : 0
    faces with face twist < 0.02                           : 0
    faces on cells with determinant < 0.001                : 0
Successfully moved mesh
Moved mesh in = 0.23 s



Morph iteration 6
-----------------
Calculating patchDisplacement as distance to nearest surface point ...
    non-zone points : attract to nearest of all non-zone surfaces
    zone points     : attract to zone surface only

Wanted displacement : average:0.00937807 min:9.76563e-08 max:0.0137144
Calculated surface displacement in = 0.03 s


Detecting near surfaces ...
Overriding nearest with intersection of close gaps at 0 out of 210530 points.
Overriding displacement on features :
   implicit features    : true
   explicit features    : false
   multi-patch features : false

Attraction:
    linear   : max:(-0.0137144 -6.66134e-16 0) avg:(0.000462059 -0.000856824 3.31371e-15)
    feature  : max:(-0.011705 0.0188977 0.0171112) avg:(0.000438157 -0.000819515 5.22747e-08)
Feature analysis : total master points :207887 of which attracted to :
    feature point   : 16
    feature edge    : 3494
    nearest surface : 204377
    rest            : 0

Smoothing displacement ...
Iteration 0
Iteration 10
Iteration 20
Iteration 30
Iteration 40
Iteration 50
Iteration 60
Iteration 70
Iteration 80
Iteration 90
Displacement smoothed in = 1.89 s


Moving mesh ...

Iteration 0
Moving mesh using displacement scaling : min:1  max:1
Checking faces in error :
    non-orthogonality > 75  degrees                        : 0
    faces with face pyramid volume < 1e-13                 : 0
    faces with concavity > 80  degrees                     : 0
    faces with skewness > 4   (internal) or 4   (boundary) : 0
    faces with interpolation weights (0..1)  < 0.05        : 0
    faces with volume ratio of neighbour cells < 0.01      : 0
    faces with face twist < 0.02                           : 0
    faces on cells with determinant < 0.001                : 0
Successfully moved mesh
Moved mesh in = 0.22 s



Morph iteration 7
-----------------
Calculating patchDisplacement as distance to nearest surface point ...
    non-zone points : attract to nearest of all non-zone surfaces
    zone points     : attract to zone surface only

Wanted displacement : average:0.00873741 min:9.76563e-08 max:0.0130644
Calculated surface displacement in = 0.03 s


Detecting near surfaces ...
Overriding nearest with intersection of close gaps at 0 out of 210530 points.
Overriding displacement on features :
   implicit features    : true
   explicit features    : false
   multi-patch features : false

Attraction:
    linear   : max:(-0.0130644 2.77556e-17 -8.88178e-16) avg:(0.000427263 -0.000798058 1.07973e-14)
    feature  : max:(-0.0108856 0.0188051 0.0170274) avg:(0.000403157 -0.000761158 5.11307e-08)
Feature analysis : total master points :207887 of which attracted to :
    feature point   : 16
    feature edge    : 3494
    nearest surface : 204377
    rest            : 0

Smoothing displacement ...
Iteration 0
Iteration 10
Iteration 20
Iteration 30
Iteration 40
Iteration 50
Iteration 60
Iteration 70
Iteration 80
Iteration 90
Displacement smoothed in = 1.88 s


Moving mesh ...

Iteration 0
Moving mesh using displacement scaling : min:1  max:1
Checking faces in error :
    non-orthogonality > 75  degrees                        : 0
    faces with face pyramid volume < 1e-13                 : 0
    faces with concavity > 80  degrees                     : 0
    faces with skewness > 4   (internal) or 4   (boundary) : 0
    faces with interpolation weights (0..1)  < 0.05        : 0
    faces with volume ratio of neighbour cells < 0.01      : 0
    faces with face twist < 0.02                           : 0
    faces on cells with determinant < 0.001                : 0
Successfully moved mesh
Moved mesh in = 0.23 s



Morph iteration 8
-----------------
Calculating patchDisplacement as distance to nearest surface point ...
    non-zone points : attract to nearest of all non-zone surfaces
    zone points     : attract to zone surface only

Wanted displacement : average:0.00805563 min:9.26515e-09 max:0.0123509
Calculated surface displacement in = 0.03 s


Detecting near surfaces ...
Overriding nearest with intersection of close gaps at 0 out of 210530 points.
Overriding displacement on features :
   implicit features    : true
   explicit features    : false
   multi-patch features : false

Attraction:
    linear   : max:(-0.0123509 -3.60822e-16 -4.44089e-16) avg:(0.000390426 -0.000735529 2.56441e-14)
    feature  : max:(-0.0100148 0.0186848 0.0169184) avg:(0.00036631 -0.000698943 -9.31666e-10)
Feature analysis : total master points :207887 of which attracted to :
    feature point   : 16
    feature edge    : 3494
    nearest surface : 204377
    rest            : 0

Smoothing displacement ...
Iteration 0
Iteration 10
Iteration 20
Iteration 30
Iteration 40
Iteration 50
Iteration 60
Iteration 70
Iteration 80
Iteration 90
Displacement smoothed in = 1.9 s


Moving mesh ...

Iteration 0
Moving mesh using displacement scaling : min:1  max:1
Checking faces in error :
    non-orthogonality > 75  degrees                        : 0
    faces with face pyramid volume < 1e-13                 : 0
    faces with concavity > 80  degrees                     : 0
    faces with skewness > 4   (internal) or 4   (boundary) : 0
    faces with interpolation weights (0..1)  < 0.05        : 0
    faces with volume ratio of neighbour cells < 0.01      : 0
    faces with face twist < 0.02                           : 0
    faces on cells with determinant < 0.001                : 0
Successfully moved mesh
Moved mesh in = 0.23 s



Morph iteration 9
-----------------
Calculating patchDisplacement as distance to nearest surface point ...
    non-zone points : attract to nearest of all non-zone surfaces
    zone points     : attract to zone surface only

Wanted displacement : average:0.00734984 min:9.76563e-08 max:0.0115818
Calculated surface displacement in = 0.03 s


Detecting near surfaces ...
Overriding nearest with intersection of close gaps at 0 out of 210530 points.
Overriding displacement on features :
   implicit features    : true
   explicit features    : false
   multi-patch features : false

Attraction:
    linear   : max:(-0.0115818 -2.22045e-16 -4.44089e-16) avg:(0.000352489 -0.000670731 5.03247e-14)
    feature  : max:(-0.00911345 0.0185334 0.0167814) avg:(0.000340024 -0.00063448 4.85288e-08)
Feature analysis : total master points :207887 of which attracted to :
    feature point   : 16
    feature edge    : 3498
    nearest surface : 204373
    rest            : 0

Smoothing displacement ...
Iteration 0
Iteration 10
Iteration 20
Iteration 30
Iteration 40
Iteration 50
Iteration 60
Iteration 70
Iteration 80
Iteration 90
Displacement smoothed in = 1.88 s


Moving mesh ...

Iteration 0
Moving mesh using displacement scaling : min:1  max:1
Checking faces in error :
    non-orthogonality > 75  degrees                        : 0
    faces with face pyramid volume < 1e-13                 : 0
    faces with concavity > 80  degrees                     : 0
    faces with skewness > 4   (internal) or 4   (boundary) : 0
    faces with interpolation weights (0..1)  < 0.05        : 0
    faces with volume ratio of neighbour cells < 0.01      : 0
    faces with face twist < 0.02                           : 0
    faces on cells with determinant < 0.001                : 0
Successfully moved mesh
Moved mesh in = 0.23 s



Morph iteration 10
-----------------
Calculating patchDisplacement as distance to nearest surface point ...
    non-zone points : attract to nearest of all non-zone surfaces
    zone points     : attract to zone surface only

Wanted displacement : average:0.0066346 min:9.76563e-08 max:0.0109825
Calculated surface displacement in = 0.03 s


Detecting near surfaces ...
Overriding nearest with intersection of close gaps at 0 out of 210530 points.
Overriding displacement on features :
   implicit features    : true
   explicit features    : false
   multi-patch features : false

Attraction:
    linear   : max:(-0.0109825 4.71845e-16 0) avg:(0.000315022 -0.000605123 7.2731e-14)
    feature  : max:(-0.00820211 0.0183481 0.0166135) avg:(0.000310061 -0.00058666 4.69096e-08)
Feature analysis : total master points :207887 of which attracted to :
    feature point   : 16
    feature edge    : 3504
    nearest surface : 204367
    rest            : 0

Smoothing displacement ...
Iteration 0
Iteration 10
Iteration 20
Iteration 30
Iteration 40
Iteration 50
Iteration 60
Iteration 70
Iteration 80
Iteration 90
Displacement smoothed in = 1.89 s


Moving mesh ...

Iteration 0
Moving mesh using displacement scaling : min:1  max:1
Checking faces in error :
    non-orthogonality > 75  degrees                        : 0
    faces with face pyramid volume < 1e-13                 : 0
    faces with concavity > 80  degrees                     : 0
    faces with skewness > 4   (internal) or 4   (boundary) : 0
    faces with interpolation weights (0..1)  < 0.05        : 0
    faces with volume ratio of neighbour cells < 0.01      : 0
    faces with face twist < 0.02                           : 0
    faces on cells with determinant < 0.001                : 0
Successfully moved mesh
Moved mesh in = 0.23 s



Morph iteration 11
-----------------
Calculating patchDisplacement as distance to nearest surface point ...
    non-zone points : attract to nearest of all non-zone surfaces
    zone points     : attract to zone surface only

Wanted displacement : average:0.00592474 min:9.76563e-08 max:0.0104383
Calculated surface displacement in = 0.03 s


Detecting near surfaces ...
Overriding nearest with intersection of close gaps at 0 out of 210530 points.
Overriding displacement on features :
   implicit features    : true
   explicit features    : false
   multi-patch features : false

Attraction:
    linear   : max:(-0.0104383 1.27676e-15 0) avg:(0.000279047 -0.000541452 1.06965e-13)
    feature  : max:(-0.00729988 0.0181261 0.0164125) avg:(0.000265619 -0.000505578 -1.97694e-09)
Feature analysis : total master points :207887 of which attracted to :
    feature point   : 16
    feature edge    : 3506
    nearest surface : 204365
    rest            : 0

Smoothing displacement ...
Iteration 0
Iteration 10
Iteration 20
Iteration 30
Iteration 40
Iteration 50
Iteration 60
Iteration 70
Iteration 80
Iteration 90
Displacement smoothed in = 1.83 s


Moving mesh ...

Iteration 0
Moving mesh using displacement scaling : min:1  max:1
Checking faces in error :
    non-orthogonality > 75  degrees                        : 0
    faces with face pyramid volume < 1e-13                 : 0
    faces with concavity > 80  degrees                     : 0
    faces with skewness > 4   (internal) or 4   (boundary) : 0
    faces with interpolation weights (0..1)  < 0.05        : 0
    faces with volume ratio of neighbour cells < 0.01      : 0
    faces with face twist < 0.02                           : 0
    faces on cells with determinant < 0.001                : 0
Successfully moved mesh
Moved mesh in = 0.24 s



Morph iteration 12
-----------------
Calculating patchDisplacement as distance to nearest surface point ...
    non-zone points : attract to nearest of all non-zone surfaces
    zone points     : attract to zone surface only

Wanted displacement : average:0.00523371 min:9.76563e-08 max:0.00985813
Calculated surface displacement in = 0.03 s


Detecting near surfaces ...
Overriding nearest with intersection of close gaps at 0 out of 210530 points.
Overriding displacement on features :
   implicit features    : true
   explicit features    : false
   multi-patch features : false

Attraction:
    linear   : max:(-0.00985813 -1.17961e-15 0) avg:(0.000243318 -0.0004779 1.4378e-13)
    feature  : max:(-0.00642389 0.0178651 0.0161762) avg:(0.000220617 -0.000434408 -1.94842e-09)
Feature analysis : total master points :207887 of which attracted to :
    feature point   : 16
    feature edge    : 3506
    nearest surface : 204365
    rest            : 0

Smoothing displacement ...
Iteration 0
Iteration 10
Iteration 20
Iteration 30
Iteration 40
Iteration 50
Iteration 60
Iteration 70
Iteration 80
Iteration 90
Displacement smoothed in = 1.85 s


Moving mesh ...

Iteration 0
Moving mesh using displacement scaling : min:1  max:1
Checking faces in error :
    non-orthogonality > 75  degrees                        : 0
    faces with face pyramid volume < 1e-13                 : 0
    faces with concavity > 80  degrees                     : 0
    faces with skewness > 4   (internal) or 4   (boundary) : 0
    faces with interpolation weights (0..1)  < 0.05        : 0
    faces with volume ratio of neighbour cells < 0.01      : 0
    faces with face twist < 0.02                           : 0
    faces on cells with determinant < 0.001                : 0
Successfully moved mesh
Moved mesh in = 0.23 s



Morph iteration 13
-----------------
Calculating patchDisplacement as distance to nearest surface point ...
    non-zone points : attract to nearest of all non-zone surfaces
    zone points     : attract to zone surface only

Wanted displacement : average:0.00457327 min:9.76563e-08 max:0.00924816
Calculated surface displacement in = 0.04 s


Detecting near surfaces ...
Overriding nearest with intersection of close gaps at 0 out of 210530 points.
Overriding displacement on features :
   implicit features    : true
   explicit features    : false
   multi-patch features : false

Attraction:
    linear   : max:(-0.00924816 -1.29063e-15 0) avg:(0.000208965 -0.000416465 1.60123e-13)
    feature  : max:(-0.00558879 0.0175631 0.0159028) avg:(0.000211115 -0.000398192 4.1908e-08)
Feature analysis : total master points :207887 of which attracted to :
    feature point   : 16
    feature edge    : 3508
    nearest surface : 204363
    rest            : 0

Smoothing displacement ...
Iteration 0
Iteration 10
Iteration 20
Iteration 30
Iteration 40
Iteration 50
Iteration 60
Iteration 70
Iteration 80
Iteration 90
Displacement smoothed in = 1.87 s


Moving mesh ...

Iteration 0
Moving mesh using displacement scaling : min:1  max:1
Checking faces in error :
    non-orthogonality > 75  degrees                        : 0
    faces with face pyramid volume < 1e-13                 : 0
    faces with concavity > 80  degrees                     : 0
    faces with skewness > 4   (internal) or 4   (boundary) : 0
    faces with interpolation weights (0..1)  < 0.05        : 0
    faces with volume ratio of neighbour cells < 0.01      : 0
    faces with face twist < 0.02                           : 0
    faces on cells with determinant < 0.001                : 0
Successfully moved mesh
Moved mesh in = 0.24 s



Morph iteration 14
-----------------
Calculating patchDisplacement as distance to nearest surface point ...
    non-zone points : attract to nearest of all non-zone surfaces
    zone points     : attract to zone surface only

Wanted displacement : average:0.00395327 min:6.94822e-08 max:0.00861529
Calculated surface displacement in = 0.03 s


Detecting near surfaces ...
Overriding nearest with intersection of close gaps at 0 out of 210530 points.
Overriding displacement on features :
   implicit features    : true
   explicit features    : false
   multi-patch features : false

Attraction:
    linear   : max:(-0.00861529 4.85723e-16 0) avg:(0.000179048 -0.000360748 2.07002e-13)
    feature  : max:(-0.00480636 0.0172189 0.0155911) avg:(0.000164715 -0.000326243 -2.73682e-09)
Feature analysis : total master points :207887 of which attracted to :
    feature point   : 16
    feature edge    : 3498
    nearest surface : 204373
    rest            : 0

Smoothing displacement ...
Iteration 0
Iteration 10
Iteration 20
Iteration 30
Iteration 40
Iteration 50
Iteration 60
Iteration 70
Iteration 80
Iteration 90
Displacement smoothed in = 1.9 s


Moving mesh ...

Iteration 0
Moving mesh using displacement scaling : min:1  max:1
Checking faces in error :
    non-orthogonality > 75  degrees                        : 0
    faces with face pyramid volume < 1e-13                 : 0
    faces with concavity > 80  degrees                     : 0
    faces with skewness > 4   (internal) or 4   (boundary) : 0
    faces with interpolation weights (0..1)  < 0.05        : 0
    faces with volume ratio of neighbour cells < 0.01      : 0
    faces with face twist < 0.02                           : 0
    faces on cells with determinant < 0.001                : 0
Successfully moved mesh
Moved mesh in = 0.23 s



Morph iteration 15
-----------------
Calculating patchDisplacement as distance to nearest surface point ...
    non-zone points : attract to nearest of all non-zone surfaces
    zone points     : attract to zone surface only

Wanted displacement : average:0.00338168 min:7.12831e-08 max:0.00808245
Calculated surface displacement in = 0.03 s


Detecting near surfaces ...
Overriding nearest with intersection of close gaps at 0 out of 210530 points.
Overriding displacement on features :
   implicit features    : true
   explicit features    : false
   multi-patch features : false

Attraction:
    linear   : max:(-0.00808245 7.07767e-16 0) avg:(0.000150178 -0.000308095 2.22095e-13)
    feature  : max:(-0.0040854 0.0168315 0.0152403) avg:(0.000144048 -0.00028329 -2.67518e-09)
Feature analysis : total master points :207887 of which attracted to :
    feature point   : 16
    feature edge    : 3504
    nearest surface : 204367
    rest            : 0

Smoothing displacement ...
Iteration 0
Iteration 10
Iteration 20
Iteration 30
Iteration 40
Iteration 50
Iteration 60
Iteration 70
Iteration 80
Iteration 90
Displacement smoothed in = 1.9 s


Moving mesh ...

Iteration 0
Moving mesh using displacement scaling : min:1  max:1
Checking faces in error :
    non-orthogonality > 75  degrees                        : 0
    faces with face pyramid volume < 1e-13                 : 0
    faces with concavity > 80  degrees                     : 0
    faces with skewness > 4   (internal) or 4   (boundary) : 0
    faces with interpolation weights (0..1)  < 0.05        : 0
    faces with volume ratio of neighbour cells < 0.01      : 0
    faces with face twist < 0.02                           : 0
    faces on cells with determinant < 0.001                : 0
Successfully moved mesh
Moved mesh in = 0.23 s



Morph iteration 16
-----------------
Calculating patchDisplacement as distance to nearest surface point ...
    non-zone points : attract to nearest of all non-zone surfaces
    zone points     : attract to zone surface only

Wanted displacement : average:0.0028624 min:9.76563e-08 max:0.00773031
Calculated surface displacement in = 0.03 s


Detecting near surfaces ...
Overriding nearest with intersection of close gaps at 0 out of 210530 points.
Overriding displacement on features :
   implicit features    : true
   explicit features    : false
   multi-patch features : false

Attraction:
    linear   : max:(-0.00773031 -7.49401e-16 -8.88178e-16) avg:(0.000125078 -0.000260445 2.35765e-13)
    feature  : max:(-0.00343174 0.0164006 0.0148502) avg:(0.000111725 -0.000226943 3.60002e-08)
Feature analysis : total master points :207887 of which attracted to :
    feature point   : 16
    feature edge    : 3498
    nearest surface : 204373
    rest            : 0

Smoothing displacement ...
Iteration 0
Iteration 10
Iteration 20
Iteration 30
Iteration 40
Iteration 50
Iteration 60
Iteration 70
Iteration 80
Iteration 90
Displacement smoothed in = 1.84 s


Moving mesh ...

Iteration 0
Moving mesh using displacement scaling : min:1  max:1
Checking faces in error :
    non-orthogonality > 75  degrees                        : 0
    faces with face pyramid volume < 1e-13                 : 0
    faces with concavity > 80  degrees                     : 0
    faces with skewness > 4   (internal) or 4   (boundary) : 0
    faces with interpolation weights (0..1)  < 0.05        : 0
    faces with volume ratio of neighbour cells < 0.01      : 0
    faces with face twist < 0.02                           : 2
    faces on cells with determinant < 0.001                : 0

Iteration 1
Moving mesh using displacement scaling : min:0.75  max:1
Checking faces in error :
    non-orthogonality > 75  degrees                        : 0
    faces with face pyramid volume < 1e-13                 : 0
    faces with concavity > 80  degrees                     : 0
    faces with skewness > 4   (internal) or 4   (boundary) : 0
    faces with interpolation weights (0..1)  < 0.05        : 0
    faces with volume ratio of neighbour cells < 0.01      : 0
    faces with face twist < 0.02                           : 2
    faces on cells with determinant < 0.001                : 0

Iteration 2
Moving mesh using displacement scaling : min:0.5625  max:1
Checking faces in error :
    non-orthogonality > 75  degrees                        : 0
    faces with face pyramid volume < 1e-13                 : 0
    faces with concavity > 80  degrees                     : 0
    faces with skewness > 4   (internal) or 4   (boundary) : 0
    faces with interpolation weights (0..1)  < 0.05        : 0
    faces with volume ratio of neighbour cells < 0.01      : 0
    faces with face twist < 0.02                           : 2
    faces on cells with determinant < 0.001                : 0

Iteration 3
Moving mesh using displacement scaling : min:0.421875  max:1
Checking faces in error :
    non-orthogonality > 75  degrees                        : 0
    faces with face pyramid volume < 1e-13                 : 0
    faces with concavity > 80  degrees                     : 0
    faces with skewness > 4   (internal) or 4   (boundary) : 0
    faces with interpolation weights (0..1)  < 0.05        : 0
    faces with volume ratio of neighbour cells < 0.01      : 0
    faces with face twist < 0.02                           : 2
    faces on cells with determinant < 0.001                : 0

Iteration 4
Moving mesh using displacement scaling : min:0.316406  max:1
Checking faces in error :
    non-orthogonality > 75  degrees                        : 0
    faces with face pyramid volume < 1e-13                 : 0
    faces with concavity > 80  degrees                     : 0
    faces with skewness > 4   (internal) or 4   (boundary) : 0
    faces with interpolation weights (0..1)  < 0.05        : 0
    faces with volume ratio of neighbour cells < 0.01      : 0
    faces with face twist < 0.02                           : 2
    faces on cells with determinant < 0.001                : 0

Iteration 5
Moving mesh using displacement scaling : min:0.237305  max:1
Checking faces in error :
    non-orthogonality > 75  degrees                        : 0
    faces with face pyramid volume < 1e-13                 : 0
    faces with concavity > 80  degrees                     : 0
    faces with skewness > 4   (internal) or 4   (boundary) : 0
    faces with interpolation weights (0..1)  < 0.05        : 0
    faces with volume ratio of neighbour cells < 0.01      : 0
    faces with face twist < 0.02                           : 2
    faces on cells with determinant < 0.001                : 0

Iteration 6
Moving mesh using displacement scaling : min:0.177979  max:1
Checking faces in error :
    non-orthogonality > 75  degrees                        : 0
    faces with face pyramid volume < 1e-13                 : 0
    faces with concavity > 80  degrees                     : 0
    faces with skewness > 4   (internal) or 4   (boundary) : 0
    faces with interpolation weights (0..1)  < 0.05        : 0
    faces with volume ratio of neighbour cells < 0.01      : 0
    faces with face twist < 0.02                           : 2
    faces on cells with determinant < 0.001                : 0

Iteration 7
Moving mesh using displacement scaling : min:0.133484  max:1
Checking faces in error :
    non-orthogonality > 75  degrees                        : 0
    faces with face pyramid volume < 1e-13                 : 0
    faces with concavity > 80  degrees                     : 0
    faces with skewness > 4   (internal) or 4   (boundary) : 0
    faces with interpolation weights (0..1)  < 0.05        : 0
    faces with volume ratio of neighbour cells < 0.01      : 0
    faces with face twist < 0.02                           : 2
    faces on cells with determinant < 0.001                : 0

Iteration 8
Moving mesh using displacement scaling : min:0.100113  max:1
Checking faces in error :
    non-orthogonality > 75  degrees                        : 0
    faces with face pyramid volume < 1e-13                 : 0
    faces with concavity > 80  degrees                     : 0
    faces with skewness > 4   (internal) or 4   (boundary) : 0
    faces with interpolation weights (0..1)  < 0.05        : 0
    faces with volume ratio of neighbour cells < 0.01      : 0
    faces with face twist < 0.02                           : 2
    faces on cells with determinant < 0.001                : 0

Iteration 9
Moving mesh using displacement scaling : min:0.0750847  max:1
Checking faces in error :
    non-orthogonality > 75  degrees                        : 0
    faces with face pyramid volume < 1e-13                 : 0
    faces with concavity > 80  degrees                     : 0
    faces with skewness > 4   (internal) or 4   (boundary) : 0
    faces with interpolation weights (0..1)  < 0.05        : 0
    faces with volume ratio of neighbour cells < 0.01      : 0
    faces with face twist < 0.02                           : 2
    faces on cells with determinant < 0.001                : 0

Iteration 10
Displacement scaling for error reduction set to 0.
Moving mesh using displacement scaling : min:0.0563135  max:1
Checking faces in error :
    non-orthogonality > 75  degrees                        : 0
    faces with face pyramid volume < 1e-13                 : 0
    faces with concavity > 80  degrees                     : 0
    faces with skewness > 4   (internal) or 4   (boundary) : 0
    faces with interpolation weights (0..1)  < 0.05        : 0
    faces with volume ratio of neighbour cells < 0.01      : 0
    faces with face twist < 0.02                           : 2
    faces on cells with determinant < 0.001                : 0

Iteration 11
Moving mesh using displacement scaling : min:0  max:1
Checking faces in error :
    non-orthogonality > 75  degrees                        : 0
    faces with face pyramid volume < 1e-13                 : 0
    faces with concavity > 80  degrees                     : 0
    faces with skewness > 4   (internal) or 4   (boundary) : 0
    faces with interpolation weights (0..1)  < 0.05        : 0
    faces with volume ratio of neighbour cells < 0.01      : 0
    faces with face twist < 0.02                           : 0
    faces on cells with determinant < 0.001                : 0
Successfully moved mesh
Moved mesh in = 1.98 s



Morph iteration 17
-----------------
Calculating patchDisplacement as distance to nearest surface point ...
    non-zone points : attract to nearest of all non-zone surfaces
    zone points     : attract to zone surface only

Wanted displacement : average:0.00240047 min:9.76563e-08 max:0.00738093
Calculated surface displacement in = 0.03 s


Detecting near surfaces ...
Overriding nearest with intersection of close gaps at 0 out of 210530 points.
Overriding displacement on features :
   implicit features    : true
   explicit features    : false
   multi-patch features : false

Attraction:
    linear   : max:(-0.00738093 -2.63678e-16 4.44089e-16) avg:(0.000102109 -0.0002176 1.78535e-14)
    feature  : max:(-0.00284834 0.0159266 0.014421) avg:(8.06606e-05 -0.000184742 -3.49303e-09)
Feature analysis : total master points :207887 of which attracted to :
    feature point   : 16
    feature edge    : 3498
    nearest surface : 204373
    rest            : 0

Smoothing displacement ...
Iteration 0
Iteration 10
Iteration 20
Iteration 30
Iteration 40
Iteration 50
Iteration 60
Iteration 70
Iteration 80
Iteration 90
Displacement smoothed in = 1.88 s


Moving mesh ...

Iteration 0
Moving mesh using displacement scaling : min:1  max:1
Checking faces in error :
    non-orthogonality > 75  degrees                        : 0
    faces with face pyramid volume < 1e-13                 : 0
    faces with concavity > 80  degrees                     : 0
    faces with skewness > 4   (internal) or 4   (boundary) : 0
    faces with interpolation weights (0..1)  < 0.05        : 0
    faces with volume ratio of neighbour cells < 0.01      : 0
    faces with face twist < 0.02                           : 2
    faces on cells with determinant < 0.001                : 0

Iteration 1
Moving mesh using displacement scaling : min:0.75  max:1
Checking faces in error :
    non-orthogonality > 75  degrees                        : 0
    faces with face pyramid volume < 1e-13                 : 0
    faces with concavity > 80  degrees                     : 0
    faces with skewness > 4   (internal) or 4   (boundary) : 0
    faces with interpolation weights (0..1)  < 0.05        : 0
    faces with volume ratio of neighbour cells < 0.01      : 0
    faces with face twist < 0.02                           : 2
    faces on cells with determinant < 0.001                : 0

Iteration 2
Moving mesh using displacement scaling : min:0.5625  max:1
Checking faces in error :
    non-orthogonality > 75  degrees                        : 0
    faces with face pyramid volume < 1e-13                 : 0
    faces with concavity > 80  degrees                     : 0
    faces with skewness > 4   (internal) or 4   (boundary) : 0
    faces with interpolation weights (0..1)  < 0.05        : 0
    faces with volume ratio of neighbour cells < 0.01      : 0
    faces with face twist < 0.02                           : 2
    faces on cells with determinant < 0.001                : 0

Iteration 3
Moving mesh using displacement scaling : min:0.421875  max:1
Checking faces in error :
    non-orthogonality > 75  degrees                        : 0
    faces with face pyramid volume < 1e-13                 : 0
    faces with concavity > 80  degrees                     : 0
    faces with skewness > 4   (internal) or 4   (boundary) : 0
    faces with interpolation weights (0..1)  < 0.05        : 0
    faces with volume ratio of neighbour cells < 0.01      : 0
    faces with face twist < 0.02                           : 2
    faces on cells with determinant < 0.001                : 0

Iteration 4
Moving mesh using displacement scaling : min:0.316406  max:1
Checking faces in error :
    non-orthogonality > 75  degrees                        : 0
    faces with face pyramid volume < 1e-13                 : 0
    faces with concavity > 80  degrees                     : 0
    faces with skewness > 4   (internal) or 4   (boundary) : 0
    faces with interpolation weights (0..1)  < 0.05        : 0
    faces with volume ratio of neighbour cells < 0.01      : 0
    faces with face twist < 0.02                           : 2
    faces on cells with determinant < 0.001                : 0

Iteration 5
Moving mesh using displacement scaling : min:0.237305  max:1
Checking faces in error :
    non-orthogonality > 75  degrees                        : 0
    faces with face pyramid volume < 1e-13                 : 0
    faces with concavity > 80  degrees                     : 0
    faces with skewness > 4   (internal) or 4   (boundary) : 0
    faces with interpolation weights (0..1)  < 0.05        : 0
    faces with volume ratio of neighbour cells < 0.01      : 0
    faces with face twist < 0.02                           : 2
    faces on cells with determinant < 0.001                : 0

Iteration 6
Moving mesh using displacement scaling : min:0.177979  max:1
Checking faces in error :
    non-orthogonality > 75  degrees                        : 0
    faces with face pyramid volume < 1e-13                 : 0
    faces with concavity > 80  degrees                     : 0
    faces with skewness > 4   (internal) or 4   (boundary) : 0
    faces with interpolation weights (0..1)  < 0.05        : 0
    faces with volume ratio of neighbour cells < 0.01      : 0
    faces with face twist < 0.02                           : 2
    faces on cells with determinant < 0.001                : 0

Iteration 7
Moving mesh using displacement scaling : min:0.133484  max:1
Checking faces in error :
    non-orthogonality > 75  degrees                        : 0
    faces with face pyramid volume < 1e-13                 : 0
    faces with concavity > 80  degrees                     : 0
    faces with skewness > 4   (internal) or 4   (boundary) : 0
    faces with interpolation weights (0..1)  < 0.05        : 0
    faces with volume ratio of neighbour cells < 0.01      : 0
    faces with face twist < 0.02                           : 2
    faces on cells with determinant < 0.001                : 0

Iteration 8
Moving mesh using displacement scaling : min:0.100113  max:1
Checking faces in error :
    non-orthogonality > 75  degrees                        : 0
    faces with face pyramid volume < 1e-13                 : 0
    faces with concavity > 80  degrees                     : 0
    faces with skewness > 4   (internal) or 4   (boundary) : 0
    faces with interpolation weights (0..1)  < 0.05        : 0
    faces with volume ratio of neighbour cells < 0.01      : 0
    faces with face twist < 0.02                           : 2
    faces on cells with determinant < 0.001                : 0

Iteration 9
Moving mesh using displacement scaling : min:0.0750847  max:1
Checking faces in error :
    non-orthogonality > 75  degrees                        : 0
    faces with face pyramid volume < 1e-13                 : 0
    faces with concavity > 80  degrees                     : 0
    faces with skewness > 4   (internal) or 4   (boundary) : 0
    faces with interpolation weights (0..1)  < 0.05        : 0
    faces with volume ratio of neighbour cells < 0.01      : 0
    faces with face twist < 0.02                           : 2
    faces on cells with determinant < 0.001                : 0

Iteration 10
Displacement scaling for error reduction set to 0.
Moving mesh using displacement scaling : min:0.0563135  max:1
Checking faces in error :
    non-orthogonality > 75  degrees                        : 0
    faces with face pyramid volume < 1e-13                 : 0
    faces with concavity > 80  degrees                     : 0
    faces with skewness > 4   (internal) or 4   (boundary) : 0
    faces with interpolation weights (0..1)  < 0.05        : 0
    faces with volume ratio of neighbour cells < 0.01      : 0
    faces with face twist < 0.02                           : 2
    faces on cells with determinant < 0.001                : 0

Iteration 11
Moving mesh using displacement scaling : min:0  max:1
Checking faces in error :
    non-orthogonality > 75  degrees                        : 0
    faces with face pyramid volume < 1e-13                 : 0
    faces with concavity > 80  degrees                     : 0
    faces with skewness > 4   (internal) or 4   (boundary) : 0
    faces with interpolation weights (0..1)  < 0.05        : 0
    faces with volume ratio of neighbour cells < 0.01      : 0
    faces with face twist < 0.02                           : 0
    faces on cells with determinant < 0.001                : 0
Successfully moved mesh
Moved mesh in = 1.97 s



Morph iteration 18
-----------------
Calculating patchDisplacement as distance to nearest surface point ...
    non-zone points : attract to nearest of all non-zone surfaces
    zone points     : attract to zone surface only

Wanted displacement : average:0.00199367 min:9.76563e-08 max:0.00699675
Calculated surface displacement in = 0.03 s


Detecting near surfaces ...
Overriding nearest with intersection of close gaps at 0 out of 210530 points.
Overriding displacement on features :
   implicit features    : true
   explicit features    : false
   multi-patch features : false

Attraction:
    linear   : max:(-0.00699675 -7.21645e-16 -4.44089e-16) avg:(8.18054e-05 -0.000179912 -1.99585e-13)
    feature  : max:(-0.00233564 0.0154106 0.0139537) avg:(6.06714e-05 -0.000147849 -3.38394e-09)
Feature analysis : total master points :207887 of which attracted to :
    feature point   : 16
    feature edge    : 3494
    nearest surface : 204377
    rest            : 0

Smoothing displacement ...
Iteration 0
Iteration 10
Iteration 20
Iteration 30
Iteration 40
Iteration 50
Iteration 60
Iteration 70
Iteration 80
Iteration 90
Displacement smoothed in = 1.95 s


Moving mesh ...

Iteration 0
[...]
    faces with interpolation weights (0..1)  < 0.05        : 0
    faces with volume ratio of neighbour cells < 0.01      : 0
    faces with face twist < 0.02                           : 0
    faces on cells with determinant < 0.001                : 0
Masters that need to be restored:8
Edge intersection testing:
    Number of edges             : 15951534
    Number of edges to retest   : 44
    Number of intersected edges : 195048


Undo iteration 1
----------------
Checking faces in error :
    non-orthogonality > 75  degrees                        : 0
    faces with face pyramid volume < 1e-13                 : 0
    faces with concavity > 80  degrees                     : 0
    faces with skewness > 4   (internal) or 4   (boundary) : 0
    faces with interpolation weights (0..1)  < 0.05        : 0
    faces with volume ratio of neighbour cells < 0.01      : 0
    faces with face twist < 0.02                           : 0
    faces on cells with determinant < 0.001                : 0

Merging all points on surface that
- are used by only two boundary faces and
- make an angle with a cosine of more than 0.866025.

Removing 12322 straight edge points ...

Edge intersection testing:
    Number of edges             : 15951534
    Number of edges to retest   : 49355
    Number of intersected edges : 195048

Undo iteration 0
----------------
Checking faces in error :
    non-orthogonality > 75  degrees                        : 0
    faces with face pyramid volume < 1e-13                 : 0
    faces with concavity > 80  degrees                     : 0
    faces with skewness > 4   (internal) or 4   (boundary) : 0
    faces with interpolation weights (0..1)  < 0.05        : 0
    faces with volume ratio of neighbour cells < 0.01      : 0
    faces with face twist < 0.02                           : 0
    faces on cells with determinant < 0.001                : 0
Snapped mesh : cells:5215962  faces:15951534  points:5520694  unbalance:0.00128874
Cells per refinement level:
    0	2115000
    1	1845088
    2	529537
    3	451055
    4	275282
Writing mesh to time constant
Wrote mesh in = 0.38 s.
Mesh snapped in = 381.54 s.
Layer specification as
- final layer thickness ('finalLayerThickness')
- expansion ratio ('expansionRatio')

Shrinking and layer addition phase
----------------------------------

Using mesh parameters 
{
    maxNonOrtho     75;
    maxBoundarySkewness 4;
    maxInternalSkewness 4;
    maxConcave      80;
    minVol          1e-13;
    minTetQuality   -1e+30;
    minArea         -1;
    minTwist        0.02;
    minDeterminant  0.001;
    minFaceWeight   0.05;
    minVolRatio     0.01;
    minTriangleTwist -1;
    errorReduction  0.75;
    nSmoothScale    4;
}



Merging all faces of a cell
---------------------------
    - which are on the same patch
    - which make an angle < 60 degrees (cos:0.5)
    - as long as the resulting face doesn't become concave by more than 0 degrees
      (0=straight, 180=fully concave)

Merging 0 sets of faces.

No faces merged ...

Merging all points on surface that
- are used by only two boundary faces and
- make an angle with a cosine of more than 0.5.

No straight edges simplified and no points removed ...

Checking mesh manifoldness ...
Outside of mesh is multiply connected across edges or points.
This is not a fatal error but might cause some unexpected behaviour.


Checking initial mesh ...
Checking faces in error :
    non-orthogonality > 75  degrees                        : 0
    faces with face pyramid volume < 1e-13                 : 0
    faces with concavity > 80  degrees                     : 0
    faces with skewness > 4   (internal) or 4   (boundary) : 0
    faces with interpolation weights (0..1)  < 0.05        : 0
    faces with volume ratio of neighbour cells < 0.01      : 0
    faces with face twist < 0.02                           : 0
    faces on cells with determinant < 0.001                : 0
Detected 0 illegal faces (concave, zero area or negative cell pyramid volume)

Before layer addition : cells:5215962  faces:15951534  points:5520694  unbalance:0.00128874
Ideal layer addition : cells:1.05542e+07  unbalance:2.68641

Duplicating 0 points on faceZones of type boundary

Handling points with inconsistent layer specification ...
dupNonManifoldPoints : Found : 0 non-manifold points (out of 5862383)

Handling points with inconsistent layer specification ...

Handling non-manifold points ...

Checking patch manifoldness ...
Outside of local patch is multiply connected across edges or points at 0 points.
Set displacement to zero for all 0 non-manifold points

Handling feature edges (angle < 180) ...

Handling cells with warped patch faces ...
Set displacement to zero on 0 warped faces since layer would be > 0.5 of the size of the bounding box.

Growing non-extrusion points by one layer ...
Set displacement to zero for an additional 0 points.

patch     faces    layers avg thickness[m]
                          near-wall overall
-----     -----    ------ --------- -------
ground    46181    10     0.0178    0.363   
container 143708   25     0.000393  0.0836  
spoiler   51348    25     0.000201  0.0427  


Outer iteration : 0
-------------------

Adding in total 0 inter-processor patches to handle extrusion of non-manifold processor boundaries.
Selecting externalDisplacementMeshMover displacementMedialAxis
displacementMedialAxis : Calculating distance to Medial Axis ...
fieldSmoother : Smoothing normals ...
    Iteration 0   residual 0.00748765
displacementMedialAxis : Inserting points on patch inlet if angle to nearest layer patch > 30 degrees.
displacementMedialAxis : Inserting points on patch outlet if angle to nearest layer patch > 30 degrees.
displacementMedialAxis : Inserting points on patch containerSpoiler if angle to nearest layer patch > 30 degrees.
displacementMedialAxis : Inserting points on patch top if angle to nearest layer patch > 30 degrees.
displacementMedialAxis : Inserting points on patch leftSide if angle to nearest layer patch > 30 degrees.
displacementMedialAxis : Inserting points on patch rightSide if angle to nearest layer patch > 30 degrees.
fieldSmoother : Smoothing normals in interior ...
    Iteration 0   residual 0.0102637

Layer addition iteration 0
--------------------------

Determining displacement for added points according to pointNormal ...
Detected 0 points with point normal pointing through faces.
Reset displacement at 0 points to average of surrounding points.

displacementMedialAxis : Smoothing using Medial Axis ...
displacementMedialAxis : Reducing layer thickness at 11468 nodes where thickness to medial axis distance is large 
displacementMedialAxis : Removing isolated regions ...
- if partially extruded faces make angle < 180
- if exclusively surrounded by non-extruded faces
displacementMedialAxis : Number of isolated points extrusion stopped : 0
fieldSmoother : Smoothing field ...
    Iteration 0   residual 0.000135315
displacementMedialAxis : Moving mesh ...
displacementMedialAxis : Iteration 0
Moving mesh using displacement scaling : min:1  max:1
Checking faces in error :
    non-orthogonality > 75  degrees                        : 7550
    faces with face pyramid volume < 1e-13                 : 6453
    faces with concavity > 80  degrees                     : 945
    faces with skewness > 4   (internal) or 4   (boundary) : 6
    faces with interpolation weights (0..1)  < 0.05        : 2
    faces with volume ratio of neighbour cells < 0.01      : 4
    faces with face twist < 0.02                           : 1059
    faces on cells with determinant < 0.001                : 4
displacementMedialAxis : Iteration 1
Moving mesh using displacement scaling : min:0.75  max:1
Checking faces in error :
    non-orthogonality > 75  degrees                        : 4054
    faces with face pyramid volume < 1e-13                 : 2938
    faces with concavity > 80  degrees                     : 154
    faces with skewness > 4   (internal) or 4   (boundary) : 422
    faces with interpolation weights (0..1)  < 0.05        : 92
    faces with volume ratio of neighbour cells < 0.01      : 4
    faces with face twist < 0.02                           : 528
    faces on cells with determinant < 0.001                : 110
displacementMedialAxis : Iteration 2
Moving mesh using displacement scaling : min:0.5625  max:1
Checking faces in error :
    non-orthogonality > 75  degrees                        : 1759
    faces with face pyramid volume < 1e-13                 : 588
    faces with concavity > 80  degrees                     : 7
    faces with skewness > 4   (internal) or 4   (boundary) : 3
    faces with interpolation weights (0..1)  < 0.05        : 0
    faces with volume ratio of neighbour cells < 0.01      : 2
    faces with face twist < 0.02                           : 1357
    faces on cells with determinant < 0.001                : 0
displacementMedialAxis : Iteration 3
Moving mesh using displacement scaling : min:0.421875  max:1
Checking faces in error :
    non-orthogonality > 75  degrees                        : 606
    faces with face pyramid volume < 1e-13                 : 75
    faces with concavity > 80  degrees                     : 165
    faces with skewness > 4   (internal) or 4   (boundary) : 0
    faces with interpolation weights (0..1)  < 0.05        : 0
    faces with volume ratio of neighbour cells < 0.01      : 0
    faces with face twist < 0.02                           : 465
    faces on cells with determinant < 0.001                : 1
displacementMedialAxis : Iteration 4
Moving mesh using displacement scaling : min:0.316406  max:1
Checking faces in error :
    non-orthogonality > 75  degrees                        : 221
    faces with face pyramid volume < 1e-13                 : 69
    faces with concavity > 80  degrees                     : 4
    faces with skewness > 4   (internal) or 4   (boundary) : 0
    faces with interpolation weights (0..1)  < 0.05        : 3
    faces with volume ratio of neighbour cells < 0.01      : 0
    faces with face twist < 0.02                           : 29
    faces on cells with determinant < 0.001                : 0
displacementMedialAxis : Iteration 5
displacementMedialAxis : Displacement scaling for error reduction set to 0.
Moving mesh using displacement scaling : min:0.237305  max:1
Checking faces in error :
    non-orthogonality > 75  degrees                        : 57
    faces with face pyramid volume < 1e-13                 : 62
    faces with concavity > 80  degrees                     : 3
    faces with skewness > 4   (internal) or 4   (boundary) : 0
    faces with interpolation weights (0..1)  < 0.05        : 2
    faces with volume ratio of neighbour cells < 0.01      : 0
    faces with face twist < 0.02                           : 25
    faces on cells with determinant < 0.001                : 0
displacementMedialAxis : Iteration 6
Moving mesh using displacement scaling : min:0  max:1
Checking faces in error :
    non-orthogonality > 75  degrees                        : 2
    faces with face pyramid volume < 1e-13                 : 0
    faces with concavity > 80  degrees                     : 0
    faces with skewness > 4   (internal) or 4   (boundary) : 0
    faces with interpolation weights (0..1)  < 0.05        : 0
    faces with volume ratio of neighbour cells < 0.01      : 0
    faces with face twist < 0.02                           : 0
    faces on cells with determinant < 0.001                : 0
displacementMedialAxis : Iteration 7
Moving mesh using displacement scaling : min:0  max:1
Checking faces in error :
    non-orthogonality > 75  degrees                        : 0
    faces with face pyramid volume < 1e-13                 : 0
    faces with concavity > 80  degrees                     : 0
    faces with skewness > 4   (internal) or 4   (boundary) : 0
    faces with interpolation weights (0..1)  < 0.05        : 0
    faces with volume ratio of neighbour cells < 0.01      : 0
    faces with face twist < 0.02                           : 0
    faces on cells with determinant < 0.001                : 0
displacementMedialAxis : Successfully moved mesh
displacementMedialAxis : Finished moving mesh ...
truncateDisplacement : Unextruded 0 faces due to non-consecutive vertices being extruded.
truncateDisplacement : Unextruded 0 faces due to stringed edges with inconsistent extrusion.

Setting up information for layer truncation ...
Detected 0 baffles across faceZones of type internal


Checking mesh with layer ...
Checking faces in error :
    non-orthogonality > 75  degrees                        : 24
    faces with face pyramid volume < 1e-13                 : 0
    faces with concavity > 80  degrees                     : 0
    faces with skewness > 4   (internal) or 4   (boundary) : 1542
    faces with interpolation weights (0..1)  < 0.05        : 6
    faces with volume ratio of neighbour cells < 0.01      : 0
    faces with face twist < 0.02                           : 8
    faces on cells with determinant < 0.001                : 94219
Detected 95799 illegal faces (concave, zero area or negative cell pyramid volume)
Extruding 232485 out of 241237 faces (96.372%). Removed extrusion at 5037 faces.
Added 5226868 out of 5346670 cells (97.7593%).

Growing non-extrusion points by one layer ...
Set displacement to zero for an additional 2060 points.


Layer addition iteration 1
--------------------------

Determining displacement for added points according to pointNormal ...
Detected 0 points with point normal pointing through faces.
Reset displacement at 0 points to average of surrounding points.

displacementMedialAxis : Smoothing using Medial Axis ...
displacementMedialAxis : Reducing layer thickness at 1972 nodes where thickness to medial axis distance is large 
displacementMedialAxis : Removing isolated regions ...
- if partially extruded faces make angle < 180
- if exclusively surrounded by non-extruded faces
displacementMedialAxis : Number of isolated points extrusion stopped : 12
fieldSmoother : Smoothing field ...
    Iteration 0   residual 0.00012139
displacementMedialAxis : Moving mesh ...
displacementMedialAxis : Iteration 0
Moving mesh using displacement scaling : min:1  max:1
Checking faces in error :
    non-orthogonality > 75  degrees                        : 362
    faces with face pyramid volume < 1e-13                 : 318
    faces with concavity > 80  degrees                     : 40
    faces with skewness > 4   (internal) or 4   (boundary) : 0
    faces with interpolation weights (0..1)  < 0.05        : 6
    faces with volume ratio of neighbour cells < 0.01      : 0
    faces with face twist < 0.02                           : 100
    faces on cells with determinant < 0.001                : 0
displacementMedialAxis : Iteration 1
Moving mesh using displacement scaling : min:0.75  max:1
Checking faces in error :
    non-orthogonality > 75  degrees                        : 246
    faces with face pyramid volume < 1e-13                 : 186
    faces with concavity > 80  degrees                     : 2
    faces with skewness > 4   (internal) or 4   (boundary) : 9
    faces with interpolation weights (0..1)  < 0.05        : 23
    faces with volume ratio of neighbour cells < 0.01      : 6
    faces with face twist < 0.02                           : 78
    faces on cells with determinant < 0.001                : 32
displacementMedialAxis : Iteration 2
Moving mesh using displacement scaling : min:0.5625  max:1
Checking faces in error :
    non-orthogonality > 75  degrees                        : 112
    faces with face pyramid volume < 1e-13                 : 24
    faces with concavity > 80  degrees                     : 8
    faces with skewness > 4   (internal) or 4   (boundary) : 0
    faces with interpolation weights (0..1)  < 0.05        : 8
    faces with volume ratio of neighbour cells < 0.01      : 0
    faces with face twist < 0.02                           : 94
    faces on cells with determinant < 0.001                : 0
displacementMedialAxis : Iteration 3
Moving mesh using displacement scaling : min:0.421875  max:1
Checking faces in error :
    non-orthogonality > 75  degrees                        : 46
    faces with face pyramid volume < 1e-13                 : 0
    faces with concavity > 80  degrees                     : 8
    faces with skewness > 4   (internal) or 4   (boundary) : 0
    faces with interpolation weights (0..1)  < 0.05        : 0
    faces with volume ratio of neighbour cells < 0.01      : 0
    faces with face twist < 0.02                           : 6
    faces on cells with determinant < 0.001                : 0
displacementMedialAxis : Iteration 4
Moving mesh using displacement scaling : min:0.316406  max:1
Checking faces in error :
    non-orthogonality > 75  degrees                        : 0
    faces with face pyramid volume < 1e-13                 : 0
    faces with concavity > 80  degrees                     : 0
    faces with skewness > 4   (internal) or 4   (boundary) : 0
    faces with interpolation weights (0..1)  < 0.05        : 0
    faces with volume ratio of neighbour cells < 0.01      : 0
    faces with face twist < 0.02                           : 0
    faces on cells with determinant < 0.001                : 0
displacementMedialAxis : Successfully moved mesh
displacementMedialAxis : Finished moving mesh ...
truncateDisplacement : Unextruded 0 faces due to non-consecutive vertices being extruded.
truncateDisplacement : Unextruded 0 faces due to stringed edges with inconsistent extrusion.

Setting up information for layer truncation ...
Detected 0 baffles across faceZones of type internal


Checking mesh with layer ...
Checking faces in error :
    non-orthogonality > 75  degrees                        : 0
    faces with face pyramid volume < 1e-13                 : 0
    faces with concavity > 80  degrees                     : 0
    faces with skewness > 4   (internal) or 4   (boundary) : 0
    faces with interpolation weights (0..1)  < 0.05        : 0
    faces with volume ratio of neighbour cells < 0.01      : 0
    faces with face twist < 0.02                           : 0
    faces on cells with determinant < 0.001                : 0
Detected 0 illegal faces (concave, zero area or negative cell pyramid volume)
Extruding 230479 out of 241237 faces (95.5405%). Removed extrusion at 0 faces.
Added 4535456 out of 5346670 cells (84.8277%).
Edge intersection testing:
    Number of edges             : 29587650
    Number of edges to retest   : 0
    Number of intersected edges : 4296426
Mesh with layers : cells:9751418  faces:29587650  points:10085848  unbalance:2.53737

patch     faces        layers        overall thickness
                   target   mesh     [m]       [%]
-----     -----    -----    ----     ---       ---
ground    46181    10       9.4      0.359     95.1    
container 143708   25       21.7     0.0799    94.3    
spoiler   51348    25       19.1     0.0389    91.1    


Doing final balancing
---------------------

Layer mesh : cells:9751418  faces:29587650  points:10085848  unbalance:0.00116311
Cells per refinement level:
    0	2321250
    1	2050188
    2	551891
    3	3538723
    4	1289366
Writing mesh to time constant
Wrote mesh in = 0.72 s.
Layers added in = 18.69 s.
Checking final mesh ...
Checking faces in error :
    non-orthogonality > 75  degrees                        : 0
    faces with face pyramid volume < 1e-13                 : 0
    faces with concavity > 80  degrees                     : 0
    faces with skewness > 4   (internal) or 4   (boundary) : 0
    faces with interpolation weights (0..1)  < 0.05        : 0
    faces with volume ratio of neighbour cells < 0.01      : 0
    faces with face twist < 0.02                           : 0
    faces on cells with determinant < 0.001                : 0
Finished meshing without any errors
Finished meshing in = 436.07 s.
End

Finalising parallel run
