--------------------------------------------------------------------------
WARNING: Linux kernel CMA support was requested via the
btl_vader_single_copy_mechanism MCA variable, but CMA support is
not available due to restrictive ptrace settings.

The vader shared memory BTL will fall back on another single-copy
mechanism if one is available. This may result in lower performance.

  Local host: Adam-PC
--------------------------------------------------------------------------
/*---------------------------------------------------------------------------*\
| =========                 |                                                 |
| \\      /  F ield         | OpenFOAM: The Open Source CFD Toolbox           |
|  \\    /   O peration     | Version:  2412                                  |
|   \\  /    A nd           | Website:  www.openfoam.com                      |
|    \\/     M anipulation  |                                                 |
\*---------------------------------------------------------------------------*/
Build  : _2c4871ff-20250317 OPENFOAM=2412 version=2412
Arch   : "LSB;label=32;scalar=64"
Exec   : snappyHexMesh -overwrite -parallel
Date   : May 27 2025
Time   : 17:04:20
Host   : Adam-PC
PID    : 31080
I/O    : uncollated
Case   : /home/adamb/OpenFOAM/adamb-v2412/run/contSpoilTurb3D/Base-Steady
nProcs : 8
Hosts  :
(
    (Adam-PC 8)
)
Pstream initialized with:
    floatTransfer      : false
    maxCommsSize       : 0
    nProcsSimpleSum    : 0
    nonBlockingExchange: 0 (tuning: 0)
    exchange algorithm : 0
    commsType          : nonBlocking
    polling iterations : 0
trapFpe: Floating point exception trapping enabled (FOAM_SIGFPE).
fileModificationChecking : Monitoring run-time modified files using timeStampMaster (fileModificationSkew 5, maxFileModificationPolls 20)
allowSystemOperations : Allowing user-supplied system call operations

// * * * * * * * * * * * * * * * * * * * * * * * * * * * * * * * * * * * * * //
Create time

Create mesh for time = 0

Read mesh in = 0.01 s

Overall mesh bounding box  : (-7.7724 -7.7724 -9.144) (10.2108 7.7724 9.144)
Relative tolerance         : 1e-06
Absolute matching distance : 2.99915e-05

Reading refinement surfaces.
Read refinement surfaces in = 0.02 s

Reading refinement shells.
Refinement level 1 for all cells inside refinementBoxOuter
Refinement level 2 for all cells inside refinementBoxInner
Refinement level 2 for all cells inside turbine
Read refinement shells in = 0 s

Setting refinement level of surface to be consistent with shells.
For geometry container detected 0 uncached triangles out of 12
For geometry spoiler detected 0 uncached triangles out of 496
Checked shell refinement in = 0 s

Reading features.
Read edgeMesh Container.eMesh
    points      : 8
    edges       : 12
    boundingBox : (0 -7.7724 -3.048) (2.4384 0 3.048)

Refinement level according to distance to "Container.eMesh" (8 points, 12 edges).
    level 2 for all cells within 0 metre.
Read edgeMesh Spoiler.eMesh
    points      : 250
    edges       : 254
    boundingBox : (-0.306245 -1.17842 -2) (1.29394 0.295635 2)

Refinement level according to distance to "Spoiler.eMesh" (250 points, 254 edges).
    level 2 for all cells within 0 metre.
Read features in = 0 s


Determining initial surface intersections
-----------------------------------------

Edge intersection testing:
    Number of edges             : 144900
    Number of edges to retest   : 0
    Number of intersected edges : 0
Edge intersection testing:
    Number of edges             : 144900
    Number of edges to retest   : 144900
    Number of intersected edges : 2570
Calculated surface intersections in = 0.02 s

Initial mesh : cells:46500  faces:144900  points:51986  unbalance:8.60215e-05
Cells per refinement level:
    0	46500
Setting refinement level of surface to be consistent with curvature.
Checked curvature refinement in = 0 s


Adding patches for surface regions
----------------------------------

Patch Type                Region                        
----- ----                ------                        
container:

2     wall                container                     

spoiler:

7     wall                spoiler                       

Added patches in = 0.01 s

Edge intersection testing:
    Number of edges             : 144900
    Number of edges to retest   : 2350
    Number of intersected edges : 2570
Decomposition method hierarchical [8]

Refinement phase
----------------

Found point (-1 0 0.5) in cell 4097 on processor 6

Feature refinement iteration 0
------------------------------

Marked for refinement due to explicit features             : 237 cells.
Determined cells to refine in = 0.02 s
Selected for feature refinement : 237 cells (out of 46500)
Edge intersection testing:
    Number of edges             : 151260
    Number of edges to retest   : 10447
    Number of intersected edges : 3272
Refined mesh in = 0.02 s
After refinement feature refinement iteration 0 : cells:48159  faces:151260  points:55250  unbalance:0.0343653
Cells per refinement level:
    0	46263
    1	1896
Balancing since max unbalance 0.0343653 is larger than allowable 0
Balanced mesh in = 0.03 s
After balancing feature refinement iteration 0 : cells:48159  faces:151260  points:55250  unbalance:0.000809817
Cells per refinement level:
    0	46263
    1	1896

Feature refinement iteration 1
------------------------------

Marked for refinement due to explicit features             : 260 cells.
Determined cells to refine in = 0.02 s
Selected for feature refinement : 368 cells (out of 48159)
Edge intersection testing:
    Number of edges             : 160629
    Number of edges to retest   : 14099
    Number of intersected edges : 4707
Refined mesh in = 0.03 s
After refinement feature refinement iteration 1 : cells:50735  faces:160629  points:59645  unbalance:0.113866
Cells per refinement level:
    0	46119
    1	2824
    2	1792
Balancing since max unbalance 0.113866 is larger than allowable 0
Balanced mesh in = 0.06 s
After balancing feature refinement iteration 1 : cells:50735  faces:160629  points:59645  unbalance:0.000650439
Cells per refinement level:
    0	46119
    1	2824
    2	1792

Feature refinement iteration 2
------------------------------

Marked for refinement due to explicit features             : 285 cells.
Determined cells to refine in = 0.02 s
Selected for feature refinement : 428 cells (out of 50735)
Edge intersection testing:
    Number of edges             : 171621
    Number of edges to retest   : 17915
    Number of intersected edges : 5490
Refined mesh in = 0.03 s
After refinement feature refinement iteration 2 : cells:53731  faces:171621  points:64878  unbalance:0.0376133
Cells per refinement level:
    0	45939
    1	4016
    2	3776
Balancing since max unbalance 0.0376133 is larger than allowable 0
Balanced mesh in = 0.06 s
After balancing feature refinement iteration 2 : cells:53731  faces:171621  points:64878  unbalance:0.00113529
Cells per refinement level:
    0	45939
    1	4016
    2	3776

Feature refinement iteration 3
------------------------------

Marked for refinement due to explicit features             : 111 cells.
Determined cells to refine in = 0.02 s
Selected for feature refinement : 150 cells (out of 53731)
Edge intersection testing:
    Number of edges             : 175422
    Number of edges to retest   : 6818
    Number of intersected edges : 5832
Refined mesh in = 0.03 s
After refinement feature refinement iteration 3 : cells:54781  faces:175422  points:66654  unbalance:0.0498531
Cells per refinement level:
    0	45900
    1	4217
    2	4664
Balancing since max unbalance 0.0498531 is larger than allowable 0
Balanced mesh in = 0.05 s
After balancing feature refinement iteration 3 : cells:54781  faces:175422  points:66654  unbalance:0.00122305
Cells per refinement level:
    0	45900
    1	4217
    2	4664

Feature refinement iteration 4
------------------------------

Marked for refinement due to explicit features             : 5 cells.
Determined cells to refine in = 0.03 s
Selected for feature refinement : 5 cells (out of 54781)
Edge intersection testing:
    Number of edges             : 175557
    Number of edges to retest   : 239
    Number of intersected edges : 5847
Refined mesh in = 0.03 s
After refinement feature refinement iteration 4 : cells:54816  faces:175557  points:66724  unbalance:0.00364857
Cells per refinement level:
    0	45896
    1	4248
    2	4672
Balancing since max unbalance 0.00364857 is larger than allowable 0
Balanced mesh in = 0.03 s
After balancing feature refinement iteration 4 : cells:54816  faces:175557  points:66724  unbalance:0.000875657
Cells per refinement level:
    0	45896
    1	4248
    2	4672

Feature refinement iteration 5
------------------------------

Marked for refinement due to explicit features             : 7 cells.
Determined cells to refine in = 0.04 s
Selected for feature refinement : 7 cells (out of 54816)
Edge intersection testing:
    Number of edges             : 175746
    Number of edges to retest   : 307
    Number of intersected edges : 5868
Refined mesh in = 0.03 s
After refinement feature refinement iteration 5 : cells:54865  faces:175746  points:66822  unbalance:0.00537683
Cells per refinement level:
    0	45896
    1	4241
    2	4728
Balancing since max unbalance 0.00537683 is larger than allowable 0
Balanced mesh in = 0.04 s
After balancing feature refinement iteration 5 : cells:54865  faces:175746  points:66822  unbalance:0.000747289
Cells per refinement level:
    0	45896
    1	4241
    2	4728

Feature refinement iteration 6
------------------------------

Marked for refinement due to explicit features             : 0 cells.
Determined cells to refine in = 0.04 s
Selected for feature refinement : 0 cells (out of 54865)
Stopping refining since too few cells selected.


Surface refinement iteration 0
------------------------------

Marked for refinement due to surface intersection          : 5766 cells.
Determined cells to refine in = 0 s
Selected for refinement : 6132 cells (out of 54865)
Edge intersection testing:
    Number of edges             : 322977
    Number of edges to retest   : 191749
    Number of intersected edges : 22988
Refined mesh in = 0.06 s
After refinement surface refinement iteration 0 : cells:97789  faces:322977  points:128809  unbalance:0.209216
Cells per refinement level:
    0	43739
    1	19730
    2	16656
    3	17664
Balancing since max unbalance 0.209216 is larger than allowable 0
Balanced mesh in = 0.1 s
After balancing surface refinement iteration 0 : cells:97789  faces:322977  points:128809  unbalance:0.00111464
Cells per refinement level:
    0	43739
    1	19730
    2	16656
    3	17664

Surface refinement iteration 1
------------------------------

Marked for refinement due to surface intersection          : 19772 cells.
Determined cells to refine in = 0 s
Selected for refinement : 20278 cells (out of 97789)
Edge intersection testing:
    Number of edges             : 803145
    Number of edges to retest   : 631446
    Number of intersected edges : 77316
Refined mesh in = 0.24 s
After refinement surface refinement iteration 1 : cells:239735  faces:803145  points:325446  unbalance:0.269368
Cells per refinement level:
    0	43673
    1	11382
    2	81096
    3	65440
    4	38144
Balancing since max unbalance 0.269368 is larger than allowable 0
Balanced mesh in = 0.31 s
After balancing surface refinement iteration 1 : cells:239735  faces:803145  points:325446  unbalance:0.00103865
Cells per refinement level:
    0	43673
    1	11382
    2	81096
    3	65440
    4	38144

Surface refinement iteration 2
------------------------------

Marked for refinement due to surface intersection          : 45696 cells.
Determined cells to refine in = 0.01 s
Selected for refinement : 46515 cells (out of 239735)
Edge intersection testing:
    Number of edges             : 1901343
    Number of edges to retest   : 1477110
    Number of intersected edges : 204644
Refined mesh in = 0.54 s
After refinement surface refinement iteration 2 : cells:565340  faces:1901343  points:771482  unbalance:0.229702
Cells per refinement level:
    0	43643
    1	11345
    2	47908
    3	337868
    4	124576
Balancing since max unbalance 0.229702 is larger than allowable 0
Balanced mesh in = 0.77 s
After balancing surface refinement iteration 2 : cells:565340  faces:1901343  points:771482  unbalance:0.00101178
Cells per refinement level:
    0	43643
    1	11345
    2	47908
    3	337868
    4	124576

Surface refinement iteration 3
------------------------------

Marked for refinement due to surface intersection          : 19496 cells.
Determined cells to refine in = 0.09 s
Selected for refinement : 20294 cells (out of 565340)
[Adam-PC:31076] 7 more processes have sent help message help-btl-vader.txt / cma-permission-denied
[Adam-PC:31076] Set MCA parameter "orte_base_help_aggregate" to 0 to see all help / error messages
Edge intersection testing:
    Number of edges             : 2366871
    Number of edges to retest   : 632966
    Number of intersected edges : 245978
Refined mesh in = 0.98 s
After refinement surface refinement iteration 3 : cells:707398  faces:2366871  points:952293  unbalance:0.498528
Cells per refinement level:
    0	43643
    1	11315
    2	47380
    3	324516
    4	280544
Balancing since max unbalance 0.498528 is larger than allowable 0
Balanced mesh in = 1.44 s
After balancing surface refinement iteration 3 : cells:707398  faces:2366871  points:952293  unbalance:0.000771843
Cells per refinement level:
    0	43643
    1	11315
    2	47380
    3	324516
    4	280544

Surface refinement iteration 4
------------------------------

Marked for refinement due to surface intersection          : 0 cells.
Determined cells to refine in = 0.09 s
Selected for refinement : 0 cells (out of 707398)
Stopping refining since too few cells selected.


Removing mesh beyond surface intersections
------------------------------------------

Setting cellZones according to locationsInMesh:
Location : (-1 0 0.5)
    cellZone : none

For cellZone none found point (-1 0 0.5) in global region 0 out of 2 regions.
--> FOAM Warning : 
    From void Foam::meshRefinement::nearestFace(const labelUList&, const Foam::bitSet&, Foam::autoPtr<Foam::mapDistribute>&, Foam::labelList&, Foam::label) const
    in file meshRefinement/meshRefinement.C at line 527
    Did not visit some faces, e.g. face 0 at (-6.36019 -7.64286 -0.48768)
Keeping all cells containing inside points
Selected for keeping : 606712 cells.
Edge intersection testing:
    Number of edges             : 2073895
    Number of edges to retest   : 97712
    Number of intersected edges : 245978

Shell refinement iteration 0
----------------------------

Marked for refinement due to distance to explicit features : 0 cells.
Marked for refinement due to refinement shells             : 44248 cells.
Determined cells to refine in = 2.89 s
Selected for internal refinement : 78454 cells (out of 606712)
Edge intersection testing:
    Number of edges             : 3735091
    Number of edges to retest   : 2575419
    Number of intersected edges : 248558
Refined mesh in = 1.31 s
After refinement shell refinement iteration 0 : cells:1155890  faces:3735091  points:1423512  unbalance:0.201557
Cells per refinement level:
    0	10710
    1	263464
    2	117330
    3	420938
    4	343448
Balancing since max unbalance 0.201557 is larger than allowable 0
Balanced mesh in = 1.89 s
After balancing shell refinement iteration 0 : cells:1155890  faces:3735091  points:1423512  unbalance:0.00108142
Cells per refinement level:
    0	10710
    1	263464
    2	117330
    3	420938
    4	343448

Shell refinement iteration 1
----------------------------

Marked for refinement due to distance to explicit features : 0 cells.
Marked for refinement due to refinement shells             : 46272 cells.
Determined cells to refine in = 0.27 s
Selected for internal refinement : 50663 cells (out of 1155890)
Edge intersection testing:
    Number of edges             : 4805755
    Number of edges to retest   : 1574219
    Number of intersected edges : 248570
Refined mesh in = 1.23 s
After refinement shell refinement iteration 1 : cells:1510531  faces:4805755  points:1784919  unbalance:0.0715212
Cells per refinement level:
    0	10710
    1	217192
    2	484635
    3	442386
    4	355608
Balancing since max unbalance 0.0715212 is larger than allowable 0
Balanced mesh in = 2.32 s
After balancing shell refinement iteration 1 : cells:1510531  faces:4805755  points:1784919  unbalance:0.00121613
Cells per refinement level:
    0	10710
    1	217192
    2	484635
    3	442386
    4	355608

Shell refinement iteration 2
----------------------------

Marked for refinement due to distance to explicit features : 0 cells.
Marked for refinement due to refinement shells             : 0 cells.
Determined cells to refine in = 0.33 s
Selected for internal refinement : 209 cells (out of 1510531)
Edge intersection testing:
    Number of edges             : 4810147
    Number of edges to retest   : 13713
    Number of intersected edges : 248570
Refined mesh in = 0.97 s
After refinement shell refinement iteration 2 : cells:1511994  faces:4810147  points:1786385  unbalance:0.00280292
Cells per refinement level:
    0	10710
    1	217192
    2	484426
    3	444058
    4	355608
Balancing since max unbalance 0.00280292 is larger than allowable 0
Balanced mesh in = 2.23 s
After balancing shell refinement iteration 2 : cells:1511994  faces:4810147  points:1786385  unbalance:0.00129233
Cells per refinement level:
    0	10710
    1	217192
    2	484426
    3	444058
    4	355608

Shell refinement iteration 3
----------------------------

Marked for refinement due to distance to explicit features : 0 cells.
Marked for refinement due to refinement shells             : 0 cells.
Determined cells to refine in = 0.31 s
Selected for internal refinement : 1 cells (out of 1511994)
Stopping refining since too few cells selected.


Dangling coarse cells refinement iteration 0
--------------------------------------------

Determined cells to refine in = 0.02 s
Selected for refinement : 0 cells (out of 1511994)
Stopping refining since too few cells selected.


Dangling coarse cells refinement iteration 0
--------------------------------------------

Determined cells to refine in = 0.03 s
Selected for refinement : 0 cells (out of 1511994)
Stopping refining since too few cells selected.


Refinement transition refinement iteration 0
--------------------------------------------

Determined cells to refine in = 0.01 s
Selected for refinement : 0 cells (out of 1511994)
Stopping refining since too few cells selected.


Splitting mesh at surface intersections
---------------------------------------

Introducing baffles for 248570 faces that are intersected by the surface.

Setting cellZones according to locationsInMesh:
Location : (-1 0 0.5)
    cellZone : none

For cellZone none found point (-1 0 0.5) in global region 0 out of 2 regions.
Edge intersection testing:
    Number of edges             : 4873583
    Number of edges to retest   : 1168668
    Number of intersected edges : 312006
Created baffles in = 6.66 s


After introducing baffles : cells:1511994  faces:4873583  points:1786385  unbalance:0.00129233
Cells per refinement level:
    0	10710
    1	217192
    2	484426
    3	444058
    4	355608

Introducing baffles to block off problem cells
----------------------------------------------

markFacesOnProblemCells : marked 196115 additional internal faces to be converted into baffles.
Analyzed problem cells in = 0.83 s


Introducing baffles to delete problem cells.

Edge intersection testing:
    Number of edges             : 5068512
    Number of edges to retest   : 596751
    Number of intersected edges : 312006
Created baffles in = 0.94 s


After introducing baffles : cells:1511994  faces:5068512  points:1789023  unbalance:0.00129233
Cells per refinement level:
    0	10710
    1	217192
    2	484426
    3	444058
    4	355608
Setting cellZones according to locationsInMesh:
Location : (-1 0 0.5)
    cellZone : none

For cellZone none found point (-1 0 0.5) in global region 0 out of 96872 regions.
Edge intersection testing:
    Number of edges             : 5068512
    Number of edges to retest   : 1332078
    Number of intersected edges : 312006

Remove unreachable sections of mesh
-----------------------------------

Keeping all cells containing points 1((-1 0 0.5))
Selected for keeping : 1406528 cells.
Edge intersection testing:
    Number of edges             : 4454304
    Number of edges to retest   : 0
    Number of intersected edges : 207436
Split mesh in = 7.25 s


After subsetting : cells:1406528  faces:4454304  points:1641886  unbalance:0.129641
Cells per refinement level:
    0	10710
    1	217192
    2	484426
    3	444058
    4	250142

Introducing zones for interfaces
--------------------------------

Setting cellZones according to locationsInMesh:
Location : (-1 0 0.5)
    cellZone : none

For cellZone none found point (-1 0 0.5) in global region 0 out of 1 regions.
Setting faceZones according to neighbouring cellZones:

Edge intersection testing:
    Number of edges             : 4454304
    Number of edges to retest   : 0
    Number of intersected edges : 207436

Handling cells with snap problems
---------------------------------

Introducing baffles for 207436 faces that are intersected by the surface.

Setting cellZones according to locationsInMesh:
Location : (-1 0 0.5)
    cellZone : none

For cellZone none found point (-1 0 0.5) in global region 0 out of 1 regions.
Edge intersection testing:
    Number of edges             : 4454304
    Number of edges to retest   : 794993
    Number of intersected edges : 207436
Created baffles in = 10.83 s


After introducing baffles : cells:1406528  faces:4454304  points:1641886  unbalance:0.129641
Cells per refinement level:
    0	10710
    1	217192
    2	484426
    3	444058
    4	250142

Introducing baffles to block off problem cells
----------------------------------------------

markFacesOnProblemCells : marked 0 additional internal faces to be converted into baffles.
Analyzed problem cells in = 0.77 s


Introducing baffles to delete problem cells.

Created baffles in = 0.04 s


After introducing baffles : cells:1406528  faces:4454304  points:1641886  unbalance:0.129641
Cells per refinement level:
    0	10710
    1	217192
    2	484426
    3	444058
    4	250142
Setting cellZones according to locationsInMesh:
Location : (-1 0 0.5)
    cellZone : none

For cellZone none found point (-1 0 0.5) in global region 0 out of 1 regions.
Edge intersection testing:
    Number of edges             : 4454304
    Number of edges to retest   : 794993
    Number of intersected edges : 207436

Remove unreachable sections of mesh
-----------------------------------

Split mesh in = 5.51 s


After subsetting : cells:1406528  faces:4454304  points:1641886  unbalance:0.129641
Cells per refinement level:
    0	10710
    1	217192
    2	484426
    3	444058
    4	250142

Merge free-standing baffles
---------------------------

freeStandingBaffles : detected 0 free-standing baffles out of 0

Detected free-standing baffles : 0
Merged free-standing baffles in = 0.33 s


dupNonManifoldPoints : Found : 0 non-manifold points (out of 1673062)
Detected unsplittable baffles : 0

Merge refined boundary faces
----------------------------

Merging 0 sets of faces.

No faces merged ...

Merging all points on surface that
- are used by only two boundary faces and
- make an angle with a cosine of more than 0.707107.

No straight edges simplified and no points removed ...

Doing final balancing
---------------------

Found 0 zoned faces to keep together.
Found 0 separated coupled faces to keep together.
Refined mesh : cells:1406528  faces:4454304  points:1641886  unbalance:0.000972608
Cells per refinement level:
    0	10710
    1	217192
    2	484426
    3	444058
    4	250142
Writing mesh to time constant
Wrote mesh in = 0.93 s.
Mesh refined in = 55.56 s.

Morphing phase
--------------

Duplicating 0 points on faceZones of type boundary
Snapping to features in 100 iterations ...
Constructing mesh displacer ...
Using mesh parameters 
{
    maxNonOrtho     75;
    maxBoundarySkewness 4;
    maxInternalSkewness 4;
    maxConcave      80;
    minVol          1e-13;
    minTetQuality   -1e+30;
    minArea         -1;
    minTwist        0.02;
    minDeterminant  0.001;
    minFaceWeight   0.05;
    minVolRatio     0.01;
    minTriangleTwist -1;
    errorReduction  0.75;
    nSmoothScale    4;
}


Checking initial mesh ...
Checking faces in error :
    non-orthogonality > 75  degrees                        : 0
    faces with face pyramid volume < 1e-13                 : 0
    faces with concavity > 80  degrees                     : 0
    faces with skewness > 4   (internal) or 4   (boundary) : 0
    faces with interpolation weights (0..1)  < 0.05        : 0
    faces with volume ratio of neighbour cells < 0.01      : 0
    faces with face twist < 0.02                           : 0
    faces on cells with determinant < 0.001                : 0
Detected 0 illegal faces (concave, zero area or negative cell pyramid volume)
Checked initial mesh in = 4.01 s


Smoothing patch points ...
Smoothing iteration 0
Found 0 non-manifold point(s).

Scaling iteration 0
Moving mesh using displacement scaling : min:1  max:1
Checking faces in error :
    non-orthogonality > 75  degrees                        : 0
    faces with face pyramid volume < 1e-13                 : 0
    faces with concavity > 80  degrees                     : 0
    faces with skewness > 4   (internal) or 4   (boundary) : 0
    faces with interpolation weights (0..1)  < 0.05        : 0
    faces with volume ratio of neighbour cells < 0.01      : 0
    faces with face twist < 0.02                           : 0
    faces on cells with determinant < 0.001                : 0
Successfully moved mesh

Smoothing iteration 1
Found 0 non-manifold point(s).

Scaling iteration 0
Moving mesh using displacement scaling : min:1  max:1
Checking faces in error :
    non-orthogonality > 75  degrees                        : 0
    faces with face pyramid volume < 1e-13                 : 0
    faces with concavity > 80  degrees                     : 0
    faces with skewness > 4   (internal) or 4   (boundary) : 0
    faces with interpolation weights (0..1)  < 0.05        : 0
    faces with volume ratio of neighbour cells < 0.01      : 0
    faces with face twist < 0.02                           : 0
    faces on cells with determinant < 0.001                : 0
Successfully moved mesh

Smoothing iteration 2
Found 0 non-manifold point(s).

Scaling iteration 0
Moving mesh using displacement scaling : min:1  max:1
Checking faces in error :
    non-orthogonality > 75  degrees                        : 0
    faces with face pyramid volume < 1e-13                 : 0
    faces with concavity > 80  degrees                     : 0
    faces with skewness > 4   (internal) or 4   (boundary) : 0
    faces with interpolation weights (0..1)  < 0.05        : 0
    faces with volume ratio of neighbour cells < 0.01      : 0
    faces with face twist < 0.02                           : 0
    faces on cells with determinant < 0.001                : 0
Successfully moved mesh

Smoothing iteration 3
Found 0 non-manifold point(s).

Scaling iteration 0
Moving mesh using displacement scaling : min:1  max:1
Checking faces in error :
    non-orthogonality > 75  degrees                        : 0
    faces with face pyramid volume < 1e-13                 : 0
    faces with concavity > 80  degrees                     : 0
    faces with skewness > 4   (internal) or 4   (boundary) : 0
    faces with interpolation weights (0..1)  < 0.05        : 0
    faces with volume ratio of neighbour cells < 0.01      : 0
    faces with face twist < 0.02                           : 0
    faces on cells with determinant < 0.001                : 0
Successfully moved mesh

Smoothing iteration 4
Found 0 non-manifold point(s).

Scaling iteration 0
Moving mesh using displacement scaling : min:1  max:1
Checking faces in error :
    non-orthogonality > 75  degrees                        : 0
    faces with face pyramid volume < 1e-13                 : 0
    faces with concavity > 80  degrees                     : 0
    faces with skewness > 4   (internal) or 4   (boundary) : 0
    faces with interpolation weights (0..1)  < 0.05        : 0
    faces with volume ratio of neighbour cells < 0.01      : 0
    faces with face twist < 0.02                           : 0
    faces on cells with determinant < 0.001                : 0
Successfully moved mesh

Smoothing iteration 5
Found 0 non-manifold point(s).

Scaling iteration 0
Moving mesh using displacement scaling : min:1  max:1
Checking faces in error :
    non-orthogonality > 75  degrees                        : 0
    faces with face pyramid volume < 1e-13                 : 0
    faces with concavity > 80  degrees                     : 0
    faces with skewness > 4   (internal) or 4   (boundary) : 0
    faces with interpolation weights (0..1)  < 0.05        : 0
    faces with volume ratio of neighbour cells < 0.01      : 0
    faces with face twist < 0.02                           : 0
    faces on cells with determinant < 0.001                : 0
Successfully moved mesh

Smoothing iteration 6
Found 0 non-manifold point(s).

Scaling iteration 0
Moving mesh using displacement scaling : min:1  max:1
Checking faces in error :
    non-orthogonality > 75  degrees                        : 0
    faces with face pyramid volume < 1e-13                 : 0
    faces with concavity > 80  degrees                     : 0
    faces with skewness > 4   (internal) or 4   (boundary) : 0
    faces with interpolation weights (0..1)  < 0.05        : 0
    faces with volume ratio of neighbour cells < 0.01      : 0
    faces with face twist < 0.02                           : 0
    faces on cells with determinant < 0.001                : 0
Successfully moved mesh

Smoothing iteration 7
Found 0 non-manifold point(s).

Scaling iteration 0
Moving mesh using displacement scaling : min:1  max:1
Checking faces in error :
    non-orthogonality > 75  degrees                        : 0
    faces with face pyramid volume < 1e-13                 : 0
    faces with concavity > 80  degrees                     : 0
    faces with skewness > 4   (internal) or 4   (boundary) : 0
    faces with interpolation weights (0..1)  < 0.05        : 0
    faces with volume ratio of neighbour cells < 0.01      : 0
    faces with face twist < 0.02                           : 0
    faces on cells with determinant < 0.001                : 0
Successfully moved mesh

Smoothing iteration 8
Found 0 non-manifold point(s).

Scaling iteration 0
Moving mesh using displacement scaling : min:1  max:1
Checking faces in error :
    non-orthogonality > 75  degrees                        : 0
    faces with face pyramid volume < 1e-13                 : 0
    faces with concavity > 80  degrees                     : 0
    faces with skewness > 4   (internal) or 4   (boundary) : 0
    faces with interpolation weights (0..1)  < 0.05        : 0
    faces with volume ratio of neighbour cells < 0.01      : 0
    faces with face twist < 0.02                           : 0
    faces on cells with determinant < 0.001                : 0
Successfully moved mesh

Smoothing iteration 9
Found 0 non-manifold point(s).

Scaling iteration 0
Moving mesh using displacement scaling : min:1  max:1
Checking faces in error :
    non-orthogonality > 75  degrees                        : 0
    faces with face pyramid volume < 1e-13                 : 0
    faces with concavity > 80  degrees                     : 0
    faces with skewness > 4   (internal) or 4   (boundary) : 0
    faces with interpolation weights (0..1)  < 0.05        : 0
    faces with volume ratio of neighbour cells < 0.01      : 0
    faces with face twist < 0.02                           : 0
    faces on cells with determinant < 0.001                : 0
Successfully moved mesh

Patch points smoothed in = 6.4 s



Morph iteration 0
-----------------
Calculating patchDisplacement as distance to nearest surface point ...
    non-zone points : attract to nearest of all non-zone surfaces
    zone points     : attract to zone surface only

Wanted displacement : average:0.0115902 min:9.76563e-08 max:0.0162843
Calculated surface displacement in = 0.05 s


Detecting near surfaces ...
Overriding nearest with intersection of close gaps at 0 out of 210222 points.
Overriding displacement on features :
   implicit features    : true
   explicit features    : false
   multi-patch features : false

Attraction:
    linear   : max:(0.0162843 0 0) avg:(0.000644945 -0.0011532 1.23425e-16)
    feature  : max:(0.0146309 0.019243 0.0173779) avg:(0.00062923 -0.00112192 -9.84117e-18)
Feature analysis : total master points :207939 of which attracted to :
    feature point   : 16
    feature edge    : 3496
    nearest surface : 204427
    rest            : 0

--> FOAM Warning : Displacement (-1.15429e-06 9.66797e-10 -1.43324e-06) at mesh point 131 coord (0.0115429 -7.7724 -3.03367) points through the surrounding patch faces
Smoothing displacement ...
Iteration 0
Iteration 10
Iteration 20
Iteration 30
Iteration 40
Iteration 50
Iteration 60
Iteration 70
Iteration 80
Iteration 90
Displacement smoothed in = 5 s


Moving mesh ...

Iteration 0
Moving mesh using displacement scaling : min:1  max:1
Checking faces in error :
    non-orthogonality > 75  degrees                        : 0
    faces with face pyramid volume < 1e-13                 : 0
    faces with concavity > 80  degrees                     : 0
    faces with skewness > 4   (internal) or 4   (boundary) : 0
    faces with interpolation weights (0..1)  < 0.05        : 0
    faces with volume ratio of neighbour cells < 0.01      : 0
    faces with face twist < 0.02                           : 0
    faces on cells with determinant < 0.001                : 0
Successfully moved mesh
Moved mesh in = 0.5 s



Morph iteration 1
-----------------
Calculating patchDisplacement as distance to nearest surface point ...
    non-zone points : attract to nearest of all non-zone surfaces
    zone points     : attract to zone surface only

Wanted displacement : average:0.0114768 min:9.76563e-08 max:0.0161234
Calculated surface displacement in = 0.07 s


Detecting near surfaces ...
Overriding nearest with intersection of close gaps at 0 out of 210222 points.
Overriding displacement on features :
   implicit features    : true
   explicit features    : false
   multi-patch features : false

Attraction:
    linear   : max:(0.0161234 0 0) avg:(0.000638139 -0.00114184 3.18471e-17)
    feature  : max:(0.0144846 0.0192411 0.0173762) avg:(0.000622373 -0.00111065 5.39742e-08)
Feature analysis : total master points :207939 of which attracted to :
    feature point   : 16
    feature edge    : 3496
    nearest surface : 204427
    rest            : 0

--> FOAM Warning : Displacement (-4.61669e-06 1.91406e-09 -5.73237e-06) at mesh point 131 coord (0.0115417 -7.7724 -3.03367) points through the surrounding patch faces
Smoothing displacement ...
Iteration 0
Iteration 10
Iteration 20
Iteration 30
Iteration 40
Iteration 50
Iteration 60
Iteration 70
Iteration 80
Iteration 90
Displacement smoothed in = 5.16 s


Moving mesh ...

Iteration 0
Moving mesh using displacement scaling : min:1  max:1
Checking faces in error :
    non-orthogonality > 75  degrees                        : 0
    faces with face pyramid volume < 1e-13                 : 0
    faces with concavity > 80  degrees                     : 0
    faces with skewness > 4   (internal) or 4   (boundary) : 0
    faces with interpolation weights (0..1)  < 0.05        : 0
    faces with volume ratio of neighbour cells < 0.01      : 0
    faces with face twist < 0.02                           : 0
    faces on cells with determinant < 0.001                : 0
Successfully moved mesh
Moved mesh in = 0.53 s



Morph iteration 2
-----------------
Calculating patchDisplacement as distance to nearest surface point ...
    non-zone points : attract to nearest of all non-zone surfaces
    zone points     : attract to zone surface only

Wanted displacement : average:0.0112523 min:9.76563e-08 max:0.0158109
Calculated surface displacement in = 0.05 s


Detecting near surfaces ...
Overriding nearest with intersection of close gaps at 0 out of 210222 points.
Overriding displacement on features :
   implicit features    : true
   explicit features    : false
   multi-patch features : false

Attraction:
    linear   : max:(0.0158109 2.77556e-17 0) avg:(0.000624675 -0.00111935 2.5423e-17)
    feature  : max:(0.0141949 0.0192334 0.0173692) avg:(0.000609005 -0.00108825 -1.68342e-11)
Feature analysis : total master points :207939 of which attracted to :
    feature point   : 16
    feature edge    : 3496
    nearest surface : 204427
    rest            : 0

--> FOAM Warning : Displacement (-1.03834e-05 2.8418e-09 -1.28927e-05) at mesh point 131 coord (0.0115371 -7.7724 -3.03367) points through the surrounding patch faces
Smoothing displacement ...
Iteration 0
Iteration 10
Iteration 20
Iteration 30
Iteration 40
Iteration 50
Iteration 60
Iteration 70
Iteration 80
Iteration 90
Displacement smoothed in = 5.34 s


Moving mesh ...

Iteration 0
Moving mesh using displacement scaling : min:1  max:1
Checking faces in error :
    non-orthogonality > 75  degrees                        : 0
    faces with face pyramid volume < 1e-13                 : 0
    faces with concavity > 80  degrees                     : 0
    faces with skewness > 4   (internal) or 4   (boundary) : 0
    faces with interpolation weights (0..1)  < 0.05        : 0
    faces with volume ratio of neighbour cells < 0.01      : 0
    faces with face twist < 0.02                           : 0
    faces on cells with determinant < 0.001                : 0
Successfully moved mesh
Moved mesh in = 0.49 s



Morph iteration 3
-----------------
Calculating patchDisplacement as distance to nearest surface point ...
    non-zone points : attract to nearest of all non-zone surfaces
    zone points     : attract to zone surface only

Wanted displacement : average:0.0109221 min:9.76563e-08 max:0.0153726
Calculated surface displacement in = 0.03 s


Detecting near surfaces ...
Overriding nearest with intersection of close gaps at 0 out of 210222 points.
Overriding displacement on features :
   implicit features    : true
   explicit features    : false
   multi-patch features : false

Attraction:
    linear   : max:(0.0153726 2.77556e-17 0) avg:(0.000604903 -0.00108628 4.15516e-17)
    feature  : max:(0.0137691 0.0192161 0.0173536) avg:(0.000589036 -0.00105544 5.4472e-08)
Feature analysis : total master points :207939 of which attracted to :
    feature point   : 16
    feature edge    : 3496
    nearest surface : 204427
    rest            : 0

--> FOAM Warning : Displacement (-1.84428e-05 3.75e-09 -2.28997e-05) at mesh point 131 coord (0.0115267 -7.7724 -3.03369) points through the surrounding patch faces
Smoothing displacement ...
Iteration 0
Iteration 10
Iteration 20
Iteration 30
Iteration 40
Iteration 50
Iteration 60
Iteration 70
Iteration 80
Iteration 90
Displacement smoothed in = 5.44 s


Moving mesh ...

Iteration 0
Moving mesh using displacement scaling : min:1  max:1
Checking faces in error :
    non-orthogonality > 75  degrees                        : 0
    faces with face pyramid volume < 1e-13                 : 0
    faces with concavity > 80  degrees                     : 0
    faces with skewness > 4   (internal) or 4   (boundary) : 0
    faces with interpolation weights (0..1)  < 0.05        : 0
    faces with volume ratio of neighbour cells < 0.01      : 0
    faces with face twist < 0.02                           : 0
    faces on cells with determinant < 0.001                : 0
Successfully moved mesh
Moved mesh in = 0.5 s



Morph iteration 4
-----------------
Calculating patchDisplacement as distance to nearest surface point ...
    non-zone points : attract to nearest of all non-zone surfaces
    zone points     : attract to zone surface only

Wanted displacement : average:0.0104948 min:9.76563e-08 max:0.0148249
Calculated surface displacement in = 0.09 s


Detecting near surfaces ...
Overriding nearest with intersection of close gaps at 0 out of 210222 points.
Overriding displacement on features :
   implicit features    : true
   explicit features    : false
   multi-patch features : false

Attraction:
    linear   : max:(0.0148249 0 -1.33227e-15) avg:(0.000579372 -0.0010435 5.00259e-16)
    feature  : max:(0.0132183 0.0191853 0.0173258) avg:(0.000563568 -0.00101309 5.38513e-08)
Feature analysis : total master points :207939 of which attracted to :
    feature point   : 16
    feature edge    : 3496
    nearest surface : 204427
    rest            : 0

--> FOAM Warning : Displacement (-2.87707e-05 4.63867e-09 -3.57235e-05) at mesh point 131 coord (0.0115083 -7.7724 -3.03371) points through the surrounding patch faces
Smoothing displacement ...
Iteration 0
Iteration 10
Iteration 20
Iteration 30
Iteration 40
Iteration 50
Iteration 60
Iteration 70
Iteration 80
Iteration 90
Displacement smoothed in = 5.48 s


Moving mesh ...

Iteration 0
Moving mesh using displacement scaling : min:1  max:1
Checking faces in error :
    non-orthogonality > 75  degrees                        : 0
    faces with face pyramid volume < 1e-13                 : 0
    faces with concavity > 80  degrees                     : 0
    faces with skewness > 4   (internal) or 4   (boundary) : 0
    faces with interpolation weights (0..1)  < 0.05        : 0
    faces with volume ratio of neighbour cells < 0.01      : 0
    faces with face twist < 0.02                           : 0
    faces on cells with determinant < 0.001                : 0
Successfully moved mesh
Moved mesh in = 0.63 s



Morph iteration 5
-----------------
Calculating patchDisplacement as distance to nearest surface point ...
    non-zone points : attract to nearest of all non-zone surfaces
    zone points     : attract to zone surface only

Wanted displacement : average:0.00998163 min:9.76563e-08 max:0.0142073
Calculated surface displacement in = 0.03 s


Detecting near surfaces ...
Overriding nearest with intersection of close gaps at 0 out of 210222 points.
Overriding displacement on features :
   implicit features    : true
   explicit features    : false
   multi-patch features : false

Attraction:
    linear   : max:(0.0142073 0 4.44089e-16) avg:(0.000548788 -0.00099214 1.62885e-15)
    feature  : max:(0.0125574 0.0191374 0.0172825) avg:(0.000532777 -0.000962061 5.30589e-08)
Feature analysis : total master points :207939 of which attracted to :
    feature point   : 16
    feature edge    : 3496
    nearest surface : 204427
    rest            : 0

--> FOAM Warning : Displacement (-4.13263e-05 5.50781e-09 -5.13132e-05) at mesh point 131 coord (0.0114795 -7.7724 -3.03375) points through the surrounding patch faces
Smoothing displacement ...
Iteration 0
Iteration 10
Iteration 20
Iteration 30
Iteration 40
Iteration 50
Iteration 60
Iteration 70
Iteration 80
Iteration 90
Displacement smoothed in = 5.25 s


Moving mesh ...

Iteration 0
Moving mesh using displacement scaling : min:1  max:1
Checking faces in error :
    non-orthogonality > 75  degrees                        : 0
    faces with face pyramid volume < 1e-13                 : 0
    faces with concavity > 80  degrees                     : 0
    faces with skewness > 4   (internal) or 4   (boundary) : 0
    faces with interpolation weights (0..1)  < 0.05        : 0
    faces with volume ratio of neighbour cells < 0.01      : 0
    faces with face twist < 0.02                           : 0
    faces on cells with determinant < 0.001                : 0
Successfully moved mesh
Moved mesh in = 0.43 s



Morph iteration 6
-----------------
Calculating patchDisplacement as distance to nearest surface point ...
    non-zone points : attract to nearest of all non-zone surfaces
    zone points     : attract to zone surface only

Wanted displacement : average:0.00939609 min:9.76563e-08 max:0.0134991
Calculated surface displacement in = 0.07 s


Detecting near surfaces ...
Overriding nearest with intersection of close gaps at 0 out of 210222 points.
Overriding displacement on features :
   implicit features    : true
   explicit features    : false
   multi-patch features : false

Attraction:
    linear   : max:(0.0134991 0 -4.44089e-16) avg:(0.000514 -0.00093355 5.97455e-15)
    feature  : max:(0.0118039 0.0190685 0.0172203) avg:(0.000497934 -0.000904002 -4.34364e-10)
Feature analysis : total master points :207939 of which attracted to :
    feature point   : 16
    feature edge    : 3496
    nearest surface : 204427
    rest            : 0

--> FOAM Warning : Displacement (-5.60472e-05 6.35742e-09 -6.95916e-05) at mesh point 131 coord (0.0114382 -7.7724 -3.0338) points through the surrounding patch faces
Smoothing displacement ...
Iteration 0
Iteration 10
Iteration 20
Iteration 30
Iteration 40
Iteration 50
Iteration 60
Iteration 70
Iteration 80
Iteration 90
Displacement smoothed in = 5.44 s


Moving mesh ...

Iteration 0
Moving mesh using displacement scaling : min:1  max:1
Checking faces in error :
    non-orthogonality > 75  degrees                        : 0
    faces with face pyramid volume < 1e-13                 : 0
    faces with concavity > 80  degrees                     : 0
    faces with skewness > 4   (internal) or 4   (boundary) : 0
    faces with interpolation weights (0..1)  < 0.05        : 0
    faces with volume ratio of neighbour cells < 0.01      : 0
    faces with face twist < 0.02                           : 0
    faces on cells with determinant < 0.001                : 0
Successfully moved mesh
Moved mesh in = 0.55 s



Morph iteration 7
-----------------
Calculating patchDisplacement as distance to nearest surface point ...
    non-zone points : attract to nearest of all non-zone surfaces
    zone points     : attract to zone surface only

Wanted displacement : average:0.00875367 min:9.76563e-08 max:0.0128626
Calculated surface displacement in = 0.06 s


Detecting near surfaces ...
Overriding nearest with intersection of close gaps at 0 out of 210222 points.
Overriding displacement on features :
   implicit features    : true
   explicit features    : false
   multi-patch features : false

Attraction:
    linear   : max:(0.0128626 0 0) avg:(0.000475947 -0.000869247 1.51443e-14)
    feature  : max:(0.0109777 0.018975 0.0171359) avg:(0.000459372 -0.000840142 5.10622e-08)
Feature analysis : total master points :207939 of which attracted to :
    feature point   : 16
    feature edge    : 3496
    nearest surface : 204427
    rest            : 0

--> FOAM Warning : Displacement (-7.28457e-05 7.1875e-09 -9.04497e-05) at mesh point 131 coord (0.0113821 -7.7724 -3.03387) points through the surrounding patch faces
Smoothing displacement ...
Iteration 0
Iteration 10
Iteration 20
Iteration 30
Iteration 40
Iteration 50
Iteration 60
Iteration 70
Iteration 80
Iteration 90
Displacement smoothed in = 5.41 s


Moving mesh ...

Iteration 0
Moving mesh using displacement scaling : min:1  max:1
Checking faces in error :
    non-orthogonality > 75  degrees                        : 0
    faces with face pyramid volume < 1e-13                 : 0
    faces with concavity > 80  degrees                     : 0
    faces with skewness > 4   (internal) or 4   (boundary) : 0
    faces with interpolation weights (0..1)  < 0.05        : 0
    faces with volume ratio of neighbour cells < 0.01      : 0
    faces with face twist < 0.02                           : 0
    faces on cells with determinant < 0.001                : 0
Successfully moved mesh
Moved mesh in = 0.47 s



Morph iteration 8
-----------------
Calculating patchDisplacement as distance to nearest surface point ...
    non-zone points : attract to nearest of all non-zone surfaces
    zone points     : attract to zone surface only

Wanted displacement : average:0.00807059 min:9.76563e-08 max:0.0121642
Calculated surface displacement in = 0.04 s


Detecting near surfaces ...
Overriding nearest with intersection of close gaps at 0 out of 210222 points.
Overriding displacement on features :
   implicit features    : true
   explicit features    : false
   multi-patch features : false

Attraction:
    linear   : max:(0.0121642 0 0) avg:(0.000435621 -0.000800843 2.56686e-14)
    feature  : max:(0.0100995 0.0188536 0.0170263) avg:(0.000430769 -0.000771965 4.97695e-08)
Feature analysis : total master points :207939 of which attracted to :
    feature point   : 16
    feature edge    : 3500
    nearest surface : 204423
    rest            : 0

--> FOAM Warning : Displacement (-9.16053e-05 7.99805e-09 -0.000113743) at mesh point 131 coord (0.0113093 -7.7724 -3.03396) points through the surrounding patch faces
Smoothing displacement ...
Iteration 0
Iteration 10
Iteration 20
Iteration 30
Iteration 40
Iteration 50
Iteration 60
Iteration 70
Iteration 80
Iteration 90
Displacement smoothed in = 5.26 s


Moving mesh ...

Iteration 0
Moving mesh using displacement scaling : min:1  max:1
Checking faces in error :
    non-orthogonality > 75  degrees                        : 0
    faces with face pyramid volume < 1e-13                 : 0
    faces with concavity > 80  degrees                     : 0
    faces with skewness > 4   (internal) or 4   (boundary) : 0
    faces with interpolation weights (0..1)  < 0.05        : 0
    faces with volume ratio of neighbour cells < 0.01      : 0
    faces with face twist < 0.02                           : 0
    faces on cells with determinant < 0.001                : 0
Successfully moved mesh
Moved mesh in = 0.6 s



Morph iteration 9
-----------------
Calculating patchDisplacement as distance to nearest surface point ...
    non-zone points : attract to nearest of all non-zone surfaces
    zone points     : attract to zone surface only

Wanted displacement : average:0.00736229 min:9.76563e-08 max:0.0114107
Calculated surface displacement in = 0.07 s


Detecting near surfaces ...
Overriding nearest with intersection of close gaps at 0 out of 210222 points.
Overriding displacement on features :
   implicit features    : true
   explicit features    : false
   multi-patch features : false

Attraction:
    linear   : max:(0.0114107 0 0) avg:(0.000394678 -0.000729979 4.50158e-14)
    feature  : max:(0.0091905 0.0187009 0.0168884) avg:(0.000397502 -0.000718649 4.8317e-08)
Feature analysis : total master points :207939 of which attracted to :
    feature point   : 16
    feature edge    : 3506
    nearest surface : 204417
    rest            : 0

--> FOAM Warning : Displacement (-0.000112177 8.78906e-09 -0.000139286) at mesh point 131 coord (0.0112177 -7.7724 -3.03407) points through the surrounding patch faces
Smoothing displacement ...
Iteration 0
Iteration 10
Iteration 20
Iteration 30
Iteration 40
Iteration 50
Iteration 60
Iteration 70
Iteration 80
Iteration 90
Displacement smoothed in = 5.33 s


Moving mesh ...

Iteration 0
Moving mesh using displacement scaling : min:1  max:1
Checking faces in error :
    non-orthogonality > 75  degrees                        : 0
    faces with face pyramid volume < 1e-13                 : 0
    faces with concavity > 80  degrees                     : 0
    faces with skewness > 4   (internal) or 4   (boundary) : 0
    faces with interpolation weights (0..1)  < 0.05        : 0
    faces with volume ratio of neighbour cells < 0.01      : 0
    faces with face twist < 0.02                           : 0
    faces on cells with determinant < 0.001                : 0
Successfully moved mesh
Moved mesh in = 0.45 s



Morph iteration 10
-----------------
Calculating patchDisplacement as distance to nearest surface point ...
    non-zone points : attract to nearest of all non-zone surfaces
    zone points     : attract to zone surface only

Wanted displacement : average:0.00664467 min:9.76563e-08 max:0.0108242
Calculated surface displacement in = 0.06 s


Detecting near surfaces ...
Overriding nearest with intersection of close gaps at 0 out of 210222 points.
Overriding displacement on features :
   implicit features    : true
   explicit features    : false
   multi-patch features : false

Attraction:
    linear   : max:(0.0108242 0 0) avg:(0.000354299 -0.000659626 7.24759e-14)
    feature  : max:(0.00827145 0.0185139 0.0167195) avg:(0.000348708 -0.000631226 -1.64527e-09)
Feature analysis : total master points :207939 of which attracted to :
    feature point   : 16
    feature edge    : 3500
    nearest surface : 204423
    rest            : 0

--> FOAM Warning : Displacement (-0.000134377 9.56055e-09 -0.00016685) at mesh point 131 coord (0.0111055 -7.7724 -3.03421) points through the surrounding patch faces
Smoothing displacement ...
Iteration 0
Iteration 10
Iteration 20
Iteration 30
Iteration 40
Iteration 50
Iteration 60
Iteration 70
Iteration 80
Iteration 90
Displacement smoothed in = 5.37 s


Moving mesh ...

Iteration 0
Moving mesh using displacement scaling : min:1  max:1
Checking faces in error :
    non-orthogonality > 75  degrees                        : 0
    faces with face pyramid volume < 1e-13                 : 0
    faces with concavity > 80  degrees                     : 0
    faces with skewness > 4   (internal) or 4   (boundary) : 0
    faces with interpolation weights (0..1)  < 0.05        : 0
    faces with volume ratio of neighbour cells < 0.01      : 0
    faces with face twist < 0.02                           : 0
    faces on cells with determinant < 0.001                : 0
Successfully moved mesh
Moved mesh in = 0.52 s



Morph iteration 11
-----------------
Calculating patchDisplacement as distance to nearest surface point ...
    non-zone points : attract to nearest of all non-zone surfaces
    zone points     : attract to zone surface only

Wanted displacement : average:0.00593272 min:9.76563e-08 max:0.010295
Calculated surface displacement in = 0.06 s


Detecting near surfaces ...
Overriding nearest with intersection of close gaps at 0 out of 210222 points.
Overriding displacement on features :
   implicit features    : true
   explicit features    : false
   multi-patch features : false

Attraction:
    linear   : max:(0.010295 -2.77556e-17 0) avg:(0.000313544 -0.000588321 1.03702e-13)
    feature  : max:(0.00736159 0.0182898 0.0165172) avg:(0.00029639 -0.000560657 -4.76349e-08)
Feature analysis : total master points :207939 of which attracted to :
    feature point   : 16
    feature edge    : 3500
    nearest surface : 204423
    rest            : 0

--> FOAM Warning : Displacement (-0.000157984 1.03125e-08 -0.000196163) at mesh point 131 coord (0.0109711 -7.7724 -3.03438) points through the surrounding patch faces
Smoothing displacement ...
Iteration 0
Iteration 10
Iteration 20
Iteration 30
Iteration 40
Iteration 50
Iteration 60
Iteration 70
Iteration 80
Iteration 90
Displacement smoothed in = 5.24 s


Moving mesh ...

Iteration 0
Moving mesh using displacement scaling : min:1  max:1
Checking faces in error :
    non-orthogonality > 75  degrees                        : 0
    faces with face pyramid volume < 1e-13                 : 0
    faces with concavity > 80  degrees                     : 0
    faces with skewness > 4   (internal) or 4   (boundary) : 0
    faces with interpolation weights (0..1)  < 0.05        : 0
    faces with volume ratio of neighbour cells < 0.01      : 0
    faces with face twist < 0.02                           : 0
    faces on cells with determinant < 0.001                : 0
Successfully moved mesh
Moved mesh in = 0.36 s



Morph iteration 12
-----------------
Calculating patchDisplacement as distance to nearest surface point ...
    non-zone points : attract to nearest of all non-zone surfaces
    zone points     : attract to zone surface only

Wanted displacement : average:0.00523992 min:9.76563e-08 max:0.00972959
Calculated surface displacement in = 0.07 s


Detecting near surfaces ...
Overriding nearest with intersection of close gaps at 0 out of 210222 points.
Overriding displacement on features :
   implicit features    : true
   explicit features    : false
   multi-patch features : false

Attraction:
    linear   : max:(0.00972959 -1.38778e-17 0) avg:(0.00027348 -0.000519022 1.47406e-13)
    feature  : max:(0.0064782 0.0180265 0.0162793) avg:(0.000284385 -0.000508113 -9.39341e-10)
Feature analysis : total master points :207939 of which attracted to :
    feature point   : 16
    feature edge    : 3506
    nearest surface : 204417
    rest            : 0

--> FOAM Warning : Displacement (-0.000182742 1.10449e-08 -0.000226904) at mesh point 131 coord (0.0108132 -7.7724 -3.03457) points through the surrounding patch faces
Smoothing displacement ...
Iteration 0
Iteration 10
Iteration 20
Iteration 30
Iteration 40
Iteration 50
Iteration 60
Iteration 70
Iteration 80
Iteration 90
Displacement smoothed in = 5.22 s


Moving mesh ...

Iteration 0
Moving mesh using displacement scaling : min:1  max:1
Checking faces in error :
    non-orthogonality > 75  degrees                        : 0
    faces with face pyramid volume < 1e-13                 : 0
    faces with concavity > 80  degrees                     : 0
    faces with skewness > 4   (internal) or 4   (boundary) : 0
    faces with interpolation weights (0..1)  < 0.05        : 0
    faces with volume ratio of neighbour cells < 0.01      : 0
    faces with face twist < 0.02                           : 0
    faces on cells with determinant < 0.001                : 0
Successfully moved mesh
Moved mesh in = 0.46 s



Morph iteration 13
-----------------
Calculating patchDisplacement as distance to nearest surface point ...
    non-zone points : attract to nearest of all non-zone surfaces
    zone points     : attract to zone surface only

Wanted displacement : average:0.00457764 min:9.76563e-08 max:0.00913389
Calculated surface displacement in = 0.04 s


Detecting near surfaces ...
Overriding nearest with intersection of close gaps at 0 out of 210222 points.
Overriding displacement on features :
   implicit features    : true
   explicit features    : false
   multi-patch features : false

Attraction:
    linear   : max:(0.00913389 1.38778e-17 0) avg:(0.000237716 -0.000454086 1.50593e-13)
    feature  : max:(0.00563603 0.0177218 0.0160042) avg:(0.000220694 -0.000418005 -9.23472e-10)
Feature analysis : total master points :207939 of which attracted to :
    feature point   : 16
    feature edge    : 3500
    nearest surface : 204423
    rest            : 0

--> FOAM Warning : Displacement (-0.000208356 1.17578e-08 -0.000258708) at mesh point 131 coord (0.0106304 -7.7724 -3.0348) points through the surrounding patch faces
Smoothing displacement ...
Iteration 0
Iteration 10
Iteration 20
Iteration 30
Iteration 40
Iteration 50
Iteration 60
Iteration 70
Iteration 80
Iteration 90
Displacement smoothed in = 5.14 s


Moving mesh ...

Iteration 0
Moving mesh using displacement scaling : min:1  max:1
Checking faces in error :
    non-orthogonality > 75  degrees                        : 0
    faces with face pyramid volume < 1e-13                 : 0
    faces with concavity > 80  degrees                     : 0
    faces with skewness > 4   (internal) or 4   (boundary) : 0
    faces with interpolation weights (0..1)  < 0.05        : 0
    faces with volume ratio of neighbour cells < 0.01      : 0
    faces with face twist < 0.02                           : 0
    faces on cells with determinant < 0.001                : 0
Successfully moved mesh
Moved mesh in = 0.52 s



Morph iteration 14
-----------------
Calculating patchDisplacement as distance to nearest surface point ...
    non-zone points : attract to nearest of all non-zone surfaces
    zone points     : attract to zone surface only

Wanted displacement : average:0.00395562 min:9.76563e-08 max:0.00851462
Calculated surface displacement in = 0.09 s


Detecting near surfaces ...
Overriding nearest with intersection of close gaps at 0 out of 210222 points.
Overriding displacement on features :
   implicit features    : true
   explicit features    : false
   multi-patch features : false

Attraction:
    linear   : max:(0.00851462 -2.77556e-17 -1.33227e-15) avg:(0.000202097 -0.000390923 1.53529e-13)
    feature  : max:(0.00484699 0.0173745 0.0156905) avg:(0.0002115 -0.000380667 -9.05366e-10)
Feature analysis : total master points :207939 of which attracted to :
    feature point   : 16
    feature edge    : 3502
    nearest surface : 204421
    rest            : 0

--> FOAM Warning : Displacement (-0.000234496 1.24512e-08 -0.000291165) at mesh point 131 coord (0.0104221 -7.7724 -3.03506) points through the surrounding patch faces
Smoothing displacement ...
Iteration 0
Iteration 10
Iteration 20
Iteration 30
Iteration 40
Iteration 50
Iteration 60
Iteration 70
Iteration 80
Iteration 90
Displacement smoothed in = 5.28 s


Moving mesh ...

Iteration 0
Moving mesh using displacement scaling : min:1  max:1
Checking faces in error :
    non-orthogonality > 75  degrees                        : 0
    faces with face pyramid volume < 1e-13                 : 0
    faces with concavity > 80  degrees                     : 0
    faces with skewness > 4   (internal) or 4   (boundary) : 0
    faces with interpolation weights (0..1)  < 0.05        : 0
    faces with volume ratio of neighbour cells < 0.01      : 0
    faces with face twist < 0.02                           : 0
    faces on cells with determinant < 0.001                : 0
Successfully moved mesh
Moved mesh in = 0.52 s



Morph iteration 15
-----------------
Calculating patchDisplacement as distance to nearest surface point ...
    non-zone points : attract to nearest of all non-zone surfaces
    zone points     : attract to zone surface only

Wanted displacement : average:0.00338135 min:2.46262e-08 max:0.00799229
Calculated surface displacement in = 0.03 s


Detecting near surfaces ...
Overriding nearest with intersection of close gaps at 0 out of 210222 points.
Overriding displacement on features :
   implicit features    : true
   explicit features    : false
   multi-patch features : false

Attraction:
    linear   : max:(0.00799229 -1.38778e-17 0) avg:(0.000171497 -0.000334592 1.55268e-13)
    feature  : max:(0.00411994 0.0169836 0.0153375) avg:(0.000155626 -0.000307377 3.91868e-08)
Feature analysis : total master points :207939 of which attracted to :
    feature point   : 16
    feature edge    : 3504
    nearest surface : 204419
    rest            : 0

--> FOAM Warning : Displacement (-0.000260802 1.3125e-08 -0.000323827) at mesh point 131 coord (0.0101876 -7.7724 -3.03535) points through the surrounding patch faces
Smoothing displacement ...
Iteration 0
Iteration 10
Iteration 20
Iteration 30
Iteration 40
Iteration 50
Iteration 60
Iteration 70
Iteration 80
Iteration 90
Displacement smoothed in = 5.41 s


Moving mesh ...

Iteration 0
Moving mesh using displacement scaling : min:1  max:1
Checking faces in error :
    non-orthogonality > 75  degrees                        : 0
    faces with face pyramid volume < 1e-13                 : 0
    faces with concavity > 80  degrees                     : 0
    faces with skewness > 4   (internal) or 4   (boundary) : 0
    faces with interpolation weights (0..1)  < 0.05        : 0
    faces with volume ratio of neighbour cells < 0.01      : 0
    faces with face twist < 0.02                           : 0
    faces on cells with determinant < 0.001                : 0
Successfully moved mesh
Moved mesh in = 0.66 s



Morph iteration 16
-----------------
Calculating patchDisplacement as distance to nearest surface point ...
    non-zone points : attract to nearest of all non-zone surfaces
    zone points     : attract to zone surface only

Wanted displacement : average:0.00286177 min:9.76563e-08 max:0.00764944
Calculated surface displacement in = 0.07 s


Detecting near surfaces ...
Overriding nearest with intersection of close gaps at 0 out of 210222 points.
Overriding displacement on features :
   implicit features    : true
   explicit features    : false
   multi-patch features : false

Attraction:
    linear   : max:(0.00764944 -1.38778e-17 0) avg:(0.000141985 -0.000282245 1.55792e-13)
    feature  : max:(0.00346075 0.0165488 0.0149448) avg:(0.000134604 -0.0002557 -3.91676e-08)
Feature analysis : total master points :207939 of which attracted to :
    feature point   : 16
    feature edge    : 3508
    nearest surface : 204415
    rest            : 0

--> FOAM Warning : Displacement (-0.000286883 1.37793e-08 -0.000356212) at mesh point 131 coord (0.00992676 -7.7724 -3.03567) points through the surrounding patch faces
Smoothing displacement ...
Iteration 0
Iteration 10
Iteration 20
Iteration 30
Iteration 40
Iteration 50
Iteration 60
Iteration 70
Iteration 80
Iteration 90
Displacement smoothed in = 5.58 s


Moving mesh ...

Iteration 0
Moving mesh using displacement scaling : min:1  max:1
Checking faces in error :
    non-orthogonality > 75  degrees                        : 0
    faces with face pyramid volume < 1e-13                 : 0
    faces with concavity > 80  degrees                     : 0
    faces with skewness > 4   (internal) or 4   (boundary) : 0
    faces with interpolation weights (0..1)  < 0.05        : 0
    faces with volume ratio of neighbour cells < 0.01      : 0
    faces with face twist < 0.02                           : 2
    faces on cells with determinant < 0.001                : 0

Iteration 1
Moving mesh using displacement scaling : min:0.75  max:1
Checking faces in error :
    non-orthogonality > 75  degrees                        : 0
    faces with face pyramid volume < 1e-13                 : 0
    faces with concavity > 80  degrees                     : 0
    faces with skewness > 4   (internal) or 4   (boundary) : 0
    faces with interpolation weights (0..1)  < 0.05        : 0
    faces with volume ratio of neighbour cells < 0.01      : 0
    faces with face twist < 0.02                           : 2
    faces on cells with determinant < 0.001                : 0

Iteration 2
Moving mesh using displacement scaling : min:0.5625  max:1
Checking faces in error :
    non-orthogonality > 75  degrees                        : 0
    faces with face pyramid volume < 1e-13                 : 0
    faces with concavity > 80  degrees                     : 0
    faces with skewness > 4   (internal) or 4   (boundary) : 0
    faces with interpolation weights (0..1)  < 0.05        : 0
    faces with volume ratio of neighbour cells < 0.01      : 0
    faces with face twist < 0.02                           : 2
    faces on cells with determinant < 0.001                : 0

Iteration 3
Moving mesh using displacement scaling : min:0.421875  max:1
Checking faces in error :
    non-orthogonality > 75  degrees                        : 0
    faces with face pyramid volume < 1e-13                 : 0
    faces with concavity > 80  degrees                     : 0
    faces with skewness > 4   (internal) or 4   (boundary) : 0
    faces with interpolation weights (0..1)  < 0.05        : 0
    faces with volume ratio of neighbour cells < 0.01      : 0
    faces with face twist < 0.02                           : 2
    faces on cells with determinant < 0.001                : 0

Iteration 4
Moving mesh using displacement scaling : min:0.316406  max:1
Checking faces in error :
    non-orthogonality > 75  degrees                        : 0
    faces with face pyramid volume < 1e-13                 : 0
    faces with concavity > 80  degrees                     : 0
    faces with skewness > 4   (internal) or 4   (boundary) : 0
    faces with interpolation weights (0..1)  < 0.05        : 0
    faces with volume ratio of neighbour cells < 0.01      : 0
    faces with face twist < 0.02                           : 2
    faces on cells with determinant < 0.001                : 0

Iteration 5
Moving mesh using displacement scaling : min:0.237305  max:1
Checking faces in error :
    non-orthogonality > 75  degrees                        : 0
    faces with face pyramid volume < 1e-13                 : 0
    faces with concavity > 80  degrees                     : 0
    faces with skewness > 4   (internal) or 4   (boundary) : 0
    faces with interpolation weights (0..1)  < 0.05        : 0
    faces with volume ratio of neighbour cells < 0.01      : 0
    faces with face twist < 0.02                           : 2
    faces on cells with determinant < 0.001                : 0

Iteration 6
Moving mesh using displacement scaling : min:0.177979  max:1
Checking faces in error :
    non-orthogonality > 75  degrees                        : 0
    faces with face pyramid volume < 1e-13                 : 0
    faces with concavity > 80  degrees                     : 0
    faces with skewness > 4   (internal) or 4   (boundary) : 0
    faces with interpolation weights (0..1)  < 0.05        : 0
    faces with volume ratio of neighbour cells < 0.01      : 0
    faces with face twist < 0.02                           : 2
    faces on cells with determinant < 0.001                : 0

Iteration 7
Moving mesh using displacement scaling : min:0.133484  max:1
Checking faces in error :
    non-orthogonality > 75  degrees                        : 0
    faces with face pyramid volume < 1e-13                 : 0
    faces with concavity > 80  degrees                     : 0
    faces with skewness > 4   (internal) or 4   (boundary) : 0
    faces with interpolation weights (0..1)  < 0.05        : 0
    faces with volume ratio of neighbour cells < 0.01      : 0
    faces with face twist < 0.02                           : 2
    faces on cells with determinant < 0.001                : 0

Iteration 8
Moving mesh using displacement scaling : min:0.100113  max:1
Checking faces in error :
    non-orthogonality > 75  degrees                        : 0
    faces with face pyramid volume < 1e-13                 : 0
    faces with concavity > 80  degrees                     : 0
    faces with skewness > 4   (internal) or 4   (boundary) : 0
    faces with interpolation weights (0..1)  < 0.05        : 0
    faces with volume ratio of neighbour cells < 0.01      : 0
    faces with face twist < 0.02                           : 2
    faces on cells with determinant < 0.001                : 0

Iteration 9
Moving mesh using displacement scaling : min:0.0750847  max:1
Checking faces in error :
    non-orthogonality > 75  degrees                        : 0
    faces with face pyramid volume < 1e-13                 : 0
    faces with concavity > 80  degrees                     : 0
    faces with skewness > 4   (internal) or 4   (boundary) : 0
    faces with interpolation weights (0..1)  < 0.05        : 0
    faces with volume ratio of neighbour cells < 0.01      : 0
    faces with face twist < 0.02                           : 2
    faces on cells with determinant < 0.001                : 0

Iteration 10
Displacement scaling for error reduction set to 0.
Moving mesh using displacement scaling : min:0.0563135  max:1
Checking faces in error :
    non-orthogonality > 75  degrees                        : 0
    faces with face pyramid volume < 1e-13                 : 0
    faces with concavity > 80  degrees                     : 0
    faces with skewness > 4   (internal) or 4   (boundary) : 0
    faces with interpolation weights (0..1)  < 0.05        : 0
    faces with volume ratio of neighbour cells < 0.01      : 0
    faces with face twist < 0.02                           : 2
    faces on cells with determinant < 0.001                : 0

Iteration 11
Moving mesh using displacement scaling : min:0  max:1
Checking faces in error :
    non-orthogonality > 75  degrees                        : 0
    faces with face pyramid volume < 1e-13                 : 0
    faces with concavity > 80  degrees                     : 0
    faces with skewness > 4   (internal) or 4   (boundary) : 0
    faces with interpolation weights (0..1)  < 0.05        : 0
    faces with volume ratio of neighbour cells < 0.01      : 0
    faces with face twist < 0.02                           : 0
    faces on cells with determinant < 0.001                : 0
Successfully moved mesh
Moved mesh in = 6.2 s



Morph iteration 17
-----------------
Calculating patchDisplacement as distance to nearest surface point ...
    non-zone points : attract to nearest of all non-zone surfaces
    zone points     : attract to zone surface only

Wanted displacement : average:0.00239743 min:9.76563e-08 max:0.00730977
Calculated surface displacement in = 0.07 s


Detecting near surfaces ...
Overriding nearest with intersection of close gaps at 0 out of 210222 points.
Overriding displacement on features :
   implicit features    : true
   explicit features    : false
   multi-patch features : false

Attraction:
    linear   : max:(0.00730977 1.38778e-17 0) avg:(0.00011637 -0.000235517 1.85212e-14)
    feature  : max:(0.00287242 0.0160705 0.0145129) avg:(0.000115391 -0.000218135 -4.5467e-08)
Feature analysis : total master points :207939 of which attracted to :
    feature point   : 16
    feature edge    : 3508
    nearest surface : 204415
    rest            : 0

--> FOAM Warning : Displacement (-0.000312332 1.44141e-08 -0.000387811) at mesh point 131 coord (0.00963988 -7.7724 -3.03603) points through the surrounding patch faces
Smoothing displacement ...
Iteration 0
Iteration 10
Iteration 20
Iteration 30
Iteration 40
Iteration 50
Iteration 60
Iteration 70
Iteration 80
Iteration 90
Displacement smoothed in = 5.26 s


Moving mesh ...

Iteration 0
Moving mesh using displacement scaling : min:1  max:1
Checking faces in error :
    non-orthogonality > 75  degrees                        : 0
    faces with face pyramid volume < 1e-13                 : 0
    faces with concavity > 80  degrees                     : 0
    faces with skewness > 4   (internal) or 4   (boundary) : 0
    faces with interpolation weights (0..1)  < 0.05        : 0
    faces with volume ratio of neighbour cells < 0.01      : 0
    faces with face twist < 0.02                           : 2
    faces on cells with determinant < 0.001                : 0

Iteration 1
Moving mesh using displacement scaling : min:0.75  max:1
Checking faces in error :
    non-orthogonality > 75  degrees                        : 0
    faces with face pyramid volume < 1e-13                 : 0
    faces with concavity > 80  degrees                     : 0
    faces with skewness > 4   (internal) or 4   (boundary) : 0
    faces with interpolation weights (0..1)  < 0.05        : 0
    faces with volume ratio of neighbour cells < 0.01      : 0
    faces with face twist < 0.02                           : 2
    faces on cells with determinant < 0.001                : 0

Iteration 2
Moving mesh using displacement scaling : min:0.5625  max:1
Checking faces in error :
    non-orthogonality > 75  degrees                        : 0
    faces with face pyramid volume < 1e-13                 : 0
    faces with concavity > 80  degrees                     : 0
    faces with skewness > 4   (internal) or 4   (boundary) : 0
    faces with interpolation weights (0..1)  < 0.05        : 0
    faces with volume ratio of neighbour cells < 0.01      : 0
    faces with face twist < 0.02                           : 2
    faces on cells with determinant < 0.001                : 0

Iteration 3
Moving mesh using displacement scaling : min:0.421875  max:1
Checking faces in error :
    non-orthogonality > 75  degrees                        : 0
    faces with face pyramid volume < 1e-13                 : 0
    faces with concavity > 80  degrees                     : 0
    faces with skewness > 4   (internal) or 4   (boundary) : 0
    faces with interpolation weights (0..1)  < 0.05        : 0
    faces with volume ratio of neighbour cells < 0.01      : 0
    faces with face twist < 0.02                           : 2
    faces on cells with determinant < 0.001                : 0

Iteration 4
Moving mesh using displacement scaling : min:0.316406  max:1
Checking faces in error :
    non-orthogonality > 75  degrees                        : 0
    faces with face pyramid volume < 1e-13                 : 0
    faces with concavity > 80  degrees                     : 0
    faces with skewness > 4   (internal) or 4   (boundary) : 0
    faces with interpolation weights (0..1)  < 0.05        : 0
    faces with volume ratio of neighbour cells < 0.01      : 0
    faces with face twist < 0.02                           : 2
    faces on cells with determinant < 0.001                : 0

Iteration 5
Moving mesh using displacement scaling : min:0.237305  max:1
Checking faces in error :
    non-orthogonality > 75  degrees                        : 0
    faces with face pyramid volume < 1e-13                 : 0
    faces with concavity > 80  degrees                     : 0
    faces with skewness > 4   (internal) or 4   (boundary) : 0
    faces with interpolation weights (0..1)  < 0.05        : 0
    faces with volume ratio of neighbour cells < 0.01      : 0
    faces with face twist < 0.02                           : 2
    faces on cells with determinant < 0.001                : 0

Iteration 6
Moving mesh using displacement scaling : min:0.177979  max:1
Checking faces in error :
    non-orthogonality > 75  degrees                        : 0
    faces with face pyramid volume < 1e-13                 : 0
    faces with concavity > 80  degrees                     : 0
    faces with skewness > 4   (internal) or 4   (boundary) : 0
    faces with interpolation weights (0..1)  < 0.05        : 0
    faces with volume ratio of neighbour cells < 0.01      : 0
    faces with face twist < 0.02                           : 2
    faces on cells with determinant < 0.001                : 0

Iteration 7
Moving mesh using displacement scaling : min:0.133484  max:1
Checking faces in error :
    non-orthogonality > 75  degrees                        : 0
    faces with face pyramid volume < 1e-13                 : 0
    faces with concavity > 80  degrees                     : 0
    faces with skewness > 4   (internal) or 4   (boundary) : 0
    faces with interpolation weights (0..1)  < 0.05        : 0
    faces with volume ratio of neighbour cells < 0.01      : 0
    faces with face twist < 0.02                           : 2
    faces on cells with determinant < 0.001                : 0

Iteration 8
Moving mesh using displacement scaling : min:0.100113  max:1
Checking faces in error :
    non-orthogonality > 75  degrees                        : 0
    faces with face pyramid volume < 1e-13                 : 0
    faces with concavity > 80  degrees                     : 0
    faces with skewness > 4   (internal) or 4   (boundary) : 0
    faces with interpolation weights (0..1)  < 0.05        : 0
    faces with volume ratio of neighbour cells < 0.01      : 0
    faces with face twist < 0.02                           : 2
    faces on cells with determinant < 0.001                : 0

Iteration 9
Moving mesh using displacement scaling : min:0.0750847  max:1
Checking faces in error :
    non-orthogonality > 75  degrees                        : 0
    faces with face pyramid volume < 1e-13                 : 0
    faces with concavity > 80  degrees                     : 0
    faces with skewness > 4   (internal) or 4   (boundary) : 0
    faces with interpolation weights (0..1)  < 0.05        : 0
    faces with volume ratio of neighbour cells < 0.01      : 0
    faces with face twist < 0.02                           : 2
    faces on cells with determinant < 0.001                : 0

Iteration 10
Displacement scaling for error reduction set to 0.
Moving mesh using displacement scaling : min:0.0563135  max:1
Checking faces in error :
    non-orthogonality > 75  degrees                        : 0
[...]

Edge intersection testing:
    Number of edges             : 4442242
    Number of edges to retest   : 48281
    Number of intersected edges : 195366

Undo iteration 0
----------------
Checking faces in error :
    non-orthogonality > 75  degrees                        : 0
    faces with face pyramid volume < 1e-13                 : 0
    faces with concavity > 80  degrees                     : 0
    faces with skewness > 4   (internal) or 4   (boundary) : 0
    faces with interpolation weights (0..1)  < 0.05        : 0
    faces with volume ratio of neighbour cells < 0.01      : 0
    faces with face twist < 0.02                           : 0
    faces on cells with determinant < 0.001                : 0
Snapped mesh : cells:1406528  faces:4442242  points:1629877  unbalance:0.000972608
Cells per refinement level:
    0	10710
    1	217192
    2	484426
    3	444058
    4	250142
Writing mesh to time constant
Wrote mesh in = 0.82 s.
Mesh snapped in = 1094.45 s.
Layer specification as
- final layer thickness ('finalLayerThickness')
- expansion ratio ('expansionRatio')

Shrinking and layer addition phase
----------------------------------

Using mesh parameters 
{
    maxNonOrtho     75;
    maxBoundarySkewness 4;
    maxInternalSkewness 4;
    maxConcave      80;
    minVol          1e-13;
    minTetQuality   -1e+30;
    minArea         -1;
    minTwist        0.02;
    minDeterminant  0.001;
    minFaceWeight   0.05;
    minVolRatio     0.01;
    minTriangleTwist -1;
    errorReduction  0.75;
    nSmoothScale    4;
}



Merging all faces of a cell
---------------------------
    - which are on the same patch
    - which make an angle < 60 degrees (cos:0.5)
    - as long as the resulting face doesn't become concave by more than 0 degrees
      (0=straight, 180=fully concave)

Merging 1 sets of faces.

Edge intersection testing:
    Number of edges             : 4442241
    Number of edges to retest   : 5
    Number of intersected edges : 195365

Undo iteration 0
----------------
Checking faces in error :
    non-orthogonality > 75  degrees                        : 1
    faces with face pyramid volume < 1e-13                 : 0
    faces with concavity > 80  degrees                     : 0
    faces with skewness > 4   (internal) or 4   (boundary) : 0
    faces with interpolation weights (0..1)  < 0.05        : 0
    faces with volume ratio of neighbour cells < 0.01      : 0
    faces with face twist < 0.02                           : 0
    faces on cells with determinant < 0.001                : 0
Masters that need to be restored:1
Edge intersection testing:
    Number of edges             : 4442242
    Number of edges to retest   : 6
    Number of intersected edges : 195366


Undo iteration 1
----------------
Checking faces in error :
    non-orthogonality > 75  degrees                        : 0
    faces with face pyramid volume < 1e-13                 : 0
    faces with concavity > 80  degrees                     : 0
    faces with skewness > 4   (internal) or 4   (boundary) : 0
    faces with interpolation weights (0..1)  < 0.05        : 0
    faces with volume ratio of neighbour cells < 0.01      : 0
    faces with face twist < 0.02                           : 0
    faces on cells with determinant < 0.001                : 0

Merging all points on surface that
- are used by only two boundary faces and
- make an angle with a cosine of more than 0.5.

No straight edges simplified and no points removed ...

Checking mesh manifoldness ...

Checking initial mesh ...
Checking faces in error :
    non-orthogonality > 75  degrees                        : 0
    faces with face pyramid volume < 1e-13                 : 0
    faces with concavity > 80  degrees                     : 0
    faces with skewness > 4   (internal) or 4   (boundary) : 0
    faces with interpolation weights (0..1)  < 0.05        : 0
    faces with volume ratio of neighbour cells < 0.01      : 0
    faces with face twist < 0.02                           : 0
    faces on cells with determinant < 0.001                : 0
Detected 0 illegal faces (concave, zero area or negative cell pyramid volume)

Before layer addition : cells:1406528  faces:4442242  points:1629877  unbalance:0.000972608
Ideal layer addition : cells:6.36632e+06  unbalance:0.105589

Duplicating 0 points on faceZones of type boundary

Handling points with inconsistent layer specification ...
dupNonManifoldPoints : Found : 0 non-manifold points (out of 1662596)

Handling points with inconsistent layer specification ...

Handling non-manifold points ...

Checking patch manifoldness ...
Outside of local patch is multiply connected across edges or points at 0 points.
Set displacement to zero for all 0 non-manifold points

Handling feature edges (angle < 180) ...

Handling cells with warped patch faces ...
Set displacement to zero on 0 warped faces since layer would be > 0.5 of the size of the bounding box.

Growing non-extrusion points by one layer ...
Set displacement to zero for an additional 0 points.

patch     faces    layers avg thickness[m]
                          near-wall overall
-----     -----    ------ --------- -------
container 143717   25     0.000381  0.0811  
ground    7544     10     0.00799   0.167   
spoiler   51657    25     0.000194  0.0414  


Outer iteration : 0
-------------------

Adding in total 0 inter-processor patches to handle extrusion of non-manifold processor boundaries.
Selecting externalDisplacementMeshMover displacementMedialAxis
displacementMedialAxis : Calculating distance to Medial Axis ...
fieldSmoother : Smoothing normals ...
    Iteration 0   residual 0.00903996
displacementMedialAxis : Inserting points on patch inlet if angle to nearest layer patch > 30 degrees.
displacementMedialAxis : Inserting points on patch outlet if angle to nearest layer patch > 30 degrees.
displacementMedialAxis : Inserting points on patch top if angle to nearest layer patch > 30 degrees.
displacementMedialAxis : Inserting points on patch leftSide if angle to nearest layer patch > 30 degrees.
displacementMedialAxis : Inserting points on patch rightSide if angle to nearest layer patch > 30 degrees.
fieldSmoother : Smoothing normals in interior ...
    Iteration 0   residual 0.0185255

Layer addition iteration 0
--------------------------

Determining displacement for added points according to pointNormal ...
Detected 0 points with point normal pointing through faces.
Reset displacement at 0 points to average of surrounding points.

displacementMedialAxis : Smoothing using Medial Axis ...
displacementMedialAxis : Reducing layer thickness at 10933 nodes where thickness to medial axis distance is large 
displacementMedialAxis : Removing isolated regions ...
- if partially extruded faces make angle < 180
- if exclusively surrounded by non-extruded faces
displacementMedialAxis : Number of isolated points extrusion stopped : 0
fieldSmoother : Smoothing field ...
    Iteration 0   residual 0.000134014
displacementMedialAxis : Moving mesh ...
displacementMedialAxis : Iteration 0
Moving mesh using displacement scaling : min:1  max:1
Checking faces in error :
    non-orthogonality > 75  degrees                        : 6703
    faces with face pyramid volume < 1e-13                 : 6761
    faces with concavity > 80  degrees                     : 943
    faces with skewness > 4   (internal) or 4   (boundary) : 3
    faces with interpolation weights (0..1)  < 0.05        : 4
    faces with volume ratio of neighbour cells < 0.01      : 2
    faces with face twist < 0.02                           : 656
    faces on cells with determinant < 0.001                : 0
displacementMedialAxis : Iteration 1
Moving mesh using displacement scaling : min:0.75  max:1
Checking faces in error :
    non-orthogonality > 75  degrees                        : 3640
    faces with face pyramid volume < 1e-13                 : 2909
    faces with concavity > 80  degrees                     : 163
    faces with skewness > 4   (internal) or 4   (boundary) : 233
    faces with interpolation weights (0..1)  < 0.05        : 65
    faces with volume ratio of neighbour cells < 0.01      : 14
    faces with face twist < 0.02                           : 745
    faces on cells with determinant < 0.001                : 166
displacementMedialAxis : Iteration 2
Moving mesh using displacement scaling : min:0.5625  max:1
Checking faces in error :
    non-orthogonality > 75  degrees                        : 1570
    faces with face pyramid volume < 1e-13                 : 549
    faces with concavity > 80  degrees                     : 28
    faces with skewness > 4   (internal) or 4   (boundary) : 1
    faces with interpolation weights (0..1)  < 0.05        : 3
    faces with volume ratio of neighbour cells < 0.01      : 0
    faces with face twist < 0.02                           : 1116
    faces on cells with determinant < 0.001                : 0
displacementMedialAxis : Iteration 3
Moving mesh using displacement scaling : min:0.421875  max:1
Checking faces in error :
    non-orthogonality > 75  degrees                        : 590
    faces with face pyramid volume < 1e-13                 : 56
    faces with concavity > 80  degrees                     : 168
    faces with skewness > 4   (internal) or 4   (boundary) : 1
    faces with interpolation weights (0..1)  < 0.05        : 0
    faces with volume ratio of neighbour cells < 0.01      : 1
    faces with face twist < 0.02                           : 447
    faces on cells with determinant < 0.001                : 2
displacementMedialAxis : Iteration 4
Moving mesh using displacement scaling : min:0.316406  max:1
Checking faces in error :
    non-orthogonality > 75  degrees                        : 50
    faces with face pyramid volume < 1e-13                 : 44
    faces with concavity > 80  degrees                     : 7
    faces with skewness > 4   (internal) or 4   (boundary) : 2
    faces with interpolation weights (0..1)  < 0.05        : 1
    faces with volume ratio of neighbour cells < 0.01      : 0
    faces with face twist < 0.02                           : 31
    faces on cells with determinant < 0.001                : 6
displacementMedialAxis : Iteration 5
displacementMedialAxis : Displacement scaling for error reduction set to 0.
Moving mesh using displacement scaling : min:0.237305  max:1
Checking faces in error :
    non-orthogonality > 75  degrees                        : 37
    faces with face pyramid volume < 1e-13                 : 31
    faces with concavity > 80  degrees                     : 6
    faces with skewness > 4   (internal) or 4   (boundary) : 2
    faces with interpolation weights (0..1)  < 0.05        : 3
    faces with volume ratio of neighbour cells < 0.01      : 0
    faces with face twist < 0.02                           : 33
    faces on cells with determinant < 0.001                : 4
displacementMedialAxis : Iteration 6
Moving mesh using displacement scaling : min:0  max:1
Checking faces in error :
    non-orthogonality > 75  degrees                        : 1
    faces with face pyramid volume < 1e-13                 : 0
    faces with concavity > 80  degrees                     : 0
    faces with skewness > 4   (internal) or 4   (boundary) : 0
    faces with interpolation weights (0..1)  < 0.05        : 0
    faces with volume ratio of neighbour cells < 0.01      : 0
    faces with face twist < 0.02                           : 2
    faces on cells with determinant < 0.001                : 0
displacementMedialAxis : Iteration 7
Moving mesh using displacement scaling : min:0  max:1
Checking faces in error :
    non-orthogonality > 75  degrees                        : 0
    faces with face pyramid volume < 1e-13                 : 0
    faces with concavity > 80  degrees                     : 0
    faces with skewness > 4   (internal) or 4   (boundary) : 0
    faces with interpolation weights (0..1)  < 0.05        : 0
    faces with volume ratio of neighbour cells < 0.01      : 0
    faces with face twist < 0.02                           : 0
    faces on cells with determinant < 0.001                : 0
displacementMedialAxis : Successfully moved mesh
displacementMedialAxis : Finished moving mesh ...
truncateDisplacement : Unextruded 0 faces due to non-consecutive vertices being extruded.
truncateDisplacement : Unextruded 0 faces due to stringed edges with inconsistent extrusion.

Setting up information for layer truncation ...
Detected 0 baffles across faceZones of type internal


Checking mesh with layer ...
Checking faces in error :
    non-orthogonality > 75  degrees                        : 10
    faces with face pyramid volume < 1e-13                 : 4
    faces with concavity > 80  degrees                     : 0
    faces with skewness > 4   (internal) or 4   (boundary) : 1156
    faces with interpolation weights (0..1)  < 0.05        : 10
    faces with volume ratio of neighbour cells < 0.01      : 0
    faces with face twist < 0.02                           : 18
    faces on cells with determinant < 0.001                : 94842
Detected 96040 illegal faces (concave, zero area or negative cell pyramid volume)
Extruding 194232 out of 202918 faces (95.7195%). Removed extrusion at 5110 faces.
Added 4848179 out of 4968250 cells (97.5832%).

Growing non-extrusion points by one layer ...
Set displacement to zero for an additional 2079 points.


Layer addition iteration 1
--------------------------

Determining displacement for added points according to pointNormal ...
Detected 0 points with point normal pointing through faces.
Reset displacement at 0 points to average of surrounding points.

displacementMedialAxis : Smoothing using Medial Axis ...
displacementMedialAxis : Reducing layer thickness at 1639 nodes where thickness to medial axis distance is large 
displacementMedialAxis : Removing isolated regions ...
- if partially extruded faces make angle < 180
- if exclusively surrounded by non-extruded faces
displacementMedialAxis : Number of isolated points extrusion stopped : 4
fieldSmoother : Smoothing field ...
    Iteration 0   residual 0.000103575
displacementMedialAxis : Moving mesh ...
displacementMedialAxis : Iteration 0
Moving mesh using displacement scaling : min:1  max:1
Checking faces in error :
    non-orthogonality > 75  degrees                        : 386
    faces with face pyramid volume < 1e-13                 : 342
    faces with concavity > 80  degrees                     : 26
    faces with skewness > 4   (internal) or 4   (boundary) : 4
    faces with interpolation weights (0..1)  < 0.05        : 0
    faces with volume ratio of neighbour cells < 0.01      : 0
    faces with face twist < 0.02                           : 96
    faces on cells with determinant < 0.001                : 0
displacementMedialAxis : Iteration 1
Moving mesh using displacement scaling : min:0.75  max:1
Checking faces in error :
    non-orthogonality > 75  degrees                        : 289
    faces with face pyramid volume < 1e-13                 : 152
    faces with concavity > 80  degrees                     : 2
    faces with skewness > 4   (internal) or 4   (boundary) : 14
    faces with interpolation weights (0..1)  < 0.05        : 14
    faces with volume ratio of neighbour cells < 0.01      : 2
    faces with face twist < 0.02                           : 115
    faces on cells with determinant < 0.001                : 24
displacementMedialAxis : Iteration 2
Moving mesh using displacement scaling : min:0.5625  max:1
Checking faces in error :
    non-orthogonality > 75  degrees                        : 122
    faces with face pyramid volume < 1e-13                 : 56
    faces with concavity > 80  degrees                     : 26
    faces with skewness > 4   (internal) or 4   (boundary) : 0
    faces with interpolation weights (0..1)  < 0.05        : 8
    faces with volume ratio of neighbour cells < 0.01      : 0
    faces with face twist < 0.02                           : 71
    faces on cells with determinant < 0.001                : 0
displacementMedialAxis : Iteration 3
Moving mesh using displacement scaling : min:0.421875  max:1
Checking faces in error :
    non-orthogonality > 75  degrees                        : 49
    faces with face pyramid volume < 1e-13                 : 0
    faces with concavity > 80  degrees                     : 18
    faces with skewness > 4   (internal) or 4   (boundary) : 0
    faces with interpolation weights (0..1)  < 0.05        : 0
    faces with volume ratio of neighbour cells < 0.01      : 0
    faces with face twist < 0.02                           : 16
    faces on cells with determinant < 0.001                : 0
displacementMedialAxis : Iteration 4
Moving mesh using displacement scaling : min:0.316406  max:1
Checking faces in error :
    non-orthogonality > 75  degrees                        : 0
    faces with face pyramid volume < 1e-13                 : 0
    faces with concavity > 80  degrees                     : 0
    faces with skewness > 4   (internal) or 4   (boundary) : 0
    faces with interpolation weights (0..1)  < 0.05        : 0
    faces with volume ratio of neighbour cells < 0.01      : 0
    faces with face twist < 0.02                           : 0
    faces on cells with determinant < 0.001                : 0
displacementMedialAxis : Successfully moved mesh
displacementMedialAxis : Finished moving mesh ...
truncateDisplacement : Unextruded 0 faces due to non-consecutive vertices being extruded.
truncateDisplacement : Unextruded 0 faces due to stringed edges with inconsistent extrusion.

Setting up information for layer truncation ...
Detected 0 baffles across faceZones of type internal


Checking mesh with layer ...
Checking faces in error :
    non-orthogonality > 75  degrees                        : 0
    faces with face pyramid volume < 1e-13                 : 0
    faces with concavity > 80  degrees                     : 0
    faces with skewness > 4   (internal) or 4   (boundary) : 0
    faces with interpolation weights (0..1)  < 0.05        : 0
    faces with volume ratio of neighbour cells < 0.01      : 0
    faces with face twist < 0.02                           : 0
    faces on cells with determinant < 0.001                : 0
Detected 0 illegal faces (concave, zero area or negative cell pyramid volume)
Extruding 192220 out of 202918 faces (94.7279%). Removed extrusion at 0 faces.
Added 4174563 out of 4968250 cells (84.0248%).
Edge intersection testing:
    Number of edges             : 16991887
    Number of edges to retest   : 0
    Number of intersected edges : 4324485
Mesh with layers : cells:5581091  faces:16991887  points:5830346  unbalance:0.178076

patch     faces        layers        overall thickness
                   target   mesh     [m]       [%]
-----     -----    -----    ----     ---       ---
container 143717   25       21.7     0.0774    94.3    
ground    7544     10       6.02     0.143     71      
spoiler   51657    25       19.6     0.0381    92.1    


Doing final balancing
---------------------

Layer mesh : cells:5581091  faces:16991887  points:5830346  unbalance:0.00110892
Cells per refinement level:
    0	12510
    1	245272
    2	499822
    3	3527136
    4	1296351
Writing mesh to time constant
Wrote mesh in = 2.86 s.
Layers added in = 40.2 s.
Checking final mesh ...
Checking faces in error :
    non-orthogonality > 75  degrees                        : 0
    faces with face pyramid volume < 1e-13                 : 0
    faces with concavity > 80  degrees                     : 0
    faces with skewness > 4   (internal) or 4   (boundary) : 0
    faces with interpolation weights (0..1)  < 0.05        : 0
    faces with volume ratio of neighbour cells < 0.01      : 0
    faces with face twist < 0.02                           : 0
    faces on cells with determinant < 0.001                : 0
Finished meshing without any errors
Finished meshing in = 1191.98 s.
End

Finalising parallel run
