/*---------------------------------------------------------------------------*\
| =========                 |                                                 |
| \\      /  F ield         | OpenFOAM: The Open Source CFD Toolbox           |
|  \\    /   O peration     | Version:  2412                                  |
|   \\  /    A nd           | Website:  www.openfoam.com                      |
|    \\/     M anipulation  |                                                 |
\*---------------------------------------------------------------------------*/
Build  : _2c4871ff-20250317 OPENFOAM=2412 version=2412
Arch   : "LSB;label=32;scalar=64"
Exec   : simpleFoam -parallel
Date   : May 27 2025
Time   : 18:10:30
Host   : Adam-PC
PID    : 31392
I/O    : uncollated
Case   : /home/adamb/OpenFOAM/adamb-v2412/run/contSpoilTurb3D/Base-Steady
nProcs : 8
Hosts  :
(
    (Adam-PC 8)
)
Pstream initialized with:
    floatTransfer      : false
    maxCommsSize       : 0
    nProcsSimpleSum    : 0
    nonBlockingExchange: 0 (tuning: 0)
    exchange algorithm : 0
    commsType          : nonBlocking
    polling iterations : 0
trapFpe: Floating point exception trapping enabled (FOAM_SIGFPE).
fileModificationChecking : Monitoring run-time modified files using timeStampMaster (fileModificationSkew 5, maxFileModificationPolls 20)
allowSystemOperations : Allowing user-supplied system call operations

// * * * * * * * * * * * * * * * * * * * * * * * * * * * * * * * * * * * * * //
Create time

Create mesh for time = 0


SIMPLE: convergence criteria
    field p	 tolerance 1e-06
    field U	 tolerance 1e-06
    field "(k|omega|nut)"	 tolerance 1e-06

Reading field p

Reading field U

Using dynamicCode for patch inlet on field U at line 29 in "/home/adamb/OpenFOAM/adamb-v2412/run/contSpoilTurb3D/Base-Steady/processor0/0/U/boundaryField/inlet"
Reading/calculating face flux field phi

Selecting incompressible transport model Newtonian
Selecting turbulence model type RAS
Selecting RAS turbulence model kOmegaSST
Selecting patchDistMethod meshWave
Using dynamicCode for patch inlet on field k at line 29 in "/home/adamb/OpenFOAM/adamb-v2412/run/contSpoilTurb3D/Base-Steady/processor0/0/k/boundaryField/inlet"
Using dynamicCode for patch inlet on field omega at line 29 in "/home/adamb/OpenFOAM/adamb-v2412/run/contSpoilTurb3D/Base-Steady/processor0/0/omega/boundaryField/inlet"
RAS
{
    RASModel        kOmegaSST;
    turbulence      on;
    printCoeffs     on;
    alphaK1         0.85;
    alphaK2         1;
    alphaOmega1     0.5;
    alphaOmega2     0.856;
    gamma1          0.555556;
    gamma2          0.44;
    beta1           0.075;
    beta2           0.0828;
    betaStar        0.09;
    a1              0.31;
    b1              1;
    c1              10;
    F3              false;
    decayControl    false;
    kInf            0;
    omegaInf        0;
}

No MRF models present

No finite volume options present
[4] 
[4] 
[4] --> FOAM FATAL ERROR: (openfoam-2412)
[4] 
    failed lookup of kOmegaSST:G (objectRegistry region0)
    available objects of type volScalarField::Internal:
5(nut k nu p omega)
[4] 
[4] 
[5] 
[5] 
[5] --> FOAM FATAL ERROR: (openfoam-2412)
[5] 
    failed lookup of kOmegaSST:G (objectRegistry region0)
    available objects of type volScalarField::Internal:
5(nut k nu p omega)
[5] 
[5] 
[5]     From const Type& Foam::objectRegistry::lookupObject(const Foam::word&, bool) const [with Type = Foam::DimensionedField<double, Foam::volMesh>]
[5]     in file ./src/OpenFOAM/lnInclude/objectRegistryTemplates.C at line 628.
[5] 
FOAM parallel run exiting
[5] 
[0] 
[0] 
[0] --> FOAM FATAL ERROR: (openfoam-2412)
[0] 
    failed lookup of kOmegaSST:G (objectRegistry region0)
    available objects of type volScalarField::Internal:
5(nut k nu p omega)
[0] 
[0] 
[0]     From const Type& Foam::objectRegistry::lookupObject(const Foam::word&, bool) const [with Type = Foam::DimensionedField<double, Foam::volMesh>]
[0]     in file ./src/OpenFOAM/lnInclude/objectRegistryTemplates.C at line 628.
[0] 
FOAM parallel run exiting
[0] 
[4]     From const Type& Foam::objectRegistry::lookupObject(const Foam::word&, bool) const [with Type = Foam::DimensionedField<double, Foam::volMesh>]
[4]     in file ./src/OpenFOAM/lnInclude/objectRegistryTemplates.C at line 628.
[4] 
FOAM parallel run exiting
[4] 
--------------------------------------------------------------------------
MPI_ABORT was invoked on rank 0 in communicator MPI_COMM_WORLD
with errorcode 1.

NOTE: invoking MPI_ABORT causes Open MPI to kill all MPI processes.
You may or may not see output from other processes, depending on
exactly when Open MPI kills them.
--------------------------------------------------------------------------
[1] 
[1] 
[1] --> FOAM FATAL ERROR: (openfoam-2412)
[1] 
    failed lookup of kOmegaSST:G (objectRegistry region0)
    available objects of type volScalarField::Internal:
5(nut k nu p omega)
[1] 
[1] 
[1]     From const Type& Foam::objectRegistry::lookupObject(const Foam::word&, bool) const [with Type = Foam::DimensionedField<double, Foam::volMesh>]
[1]     in file ./src/OpenFOAM/lnInclude/objectRegistryTemplates.C at line 628.
[1] 
FOAM parallel run exiting
[1] 
[3] 
[3] 
[3] --> FOAM FATAL ERROR: (openfoam-2412)
[3] 
    failed lookup of kOmegaSST:G (objectRegistry region0)
    available objects of type volScalarField::Internal:
5(nut k nu p omega)
[3] 
[3] 
[3]     From const Type& Foam::objectRegistry::lookupObject(const Foam::word&, bool) const [with Type = Foam::DimensionedField<double, Foam::volMesh>]
[3]     in file ./src/OpenFOAM/lnInclude/objectRegistryTemplates.C at line 628.
[3] 
FOAM parallel run exiting
[3] 
[7] 
[7] 
[7] --> FOAM FATAL ERROR: (openfoam-2412)
[7] 
    failed lookup of kOmegaSST:G (objectRegistry region0)
    available objects of type volScalarField::Internal:
5(nut k nu p omega)
[7] 
[7] 
[7]     From const Type& Foam::objectRegistry::lookupObject(const Foam::word&, bool) const [with Type = Foam::DimensionedField<double, Foam::volMesh>]
[7]     in file ./src/OpenFOAM/lnInclude/objectRegistryTemplates.C at line 628.
[7] 
FOAM parallel run exiting
[7] 
[2] 
[2] 
[2] --> FOAM FATAL ERROR: (openfoam-2412)
[2] 
    failed lookup of kOmegaSST:G (objectRegistry region0)
    available objects of type volScalarField::Internal:
5(nut k nu p omega)
[2] 
[2] 
[2]     From const Type& Foam::objectRegistry::lookupObject(const Foam::word&, bool) const [with Type = Foam::DimensionedField<double, Foam::volMesh>]
[2]     in file ./src/OpenFOAM/lnInclude/objectRegistryTemplates.C at line 628.
[2] 
FOAM parallel run exiting
[2] 
[6] 
[6] 
[6] --> FOAM FATAL ERROR: (openfoam-2412)
[6] 
    failed lookup of kOmegaSST:G (objectRegistry region0)
    available objects of type volScalarField::Internal:
5(nut k nu p omega)
[6] 
[6] 
[6]     From const Type& Foam::objectRegistry::lookupObject(const Foam::word&, bool) const [with Type = Foam::DimensionedField<double, Foam::volMesh>]
[6]     in file ./src/OpenFOAM/lnInclude/objectRegistryTemplates.C at line 628.
[6] 
FOAM parallel run exiting
[6] 
[Adam-PC:31388] 6 more processes have sent help message help-mpi-api.txt / mpi-abort
[Adam-PC:31388] Set MCA parameter "orte_base_help_aggregate" to 0 to see all help / error messages
