/*---------------------------------------------------------------------------*\
| =========                 |                                                 |
| \\      /  F ield         | OpenFOAM: The Open Source CFD Toolbox           |
|  \\    /   O peration     | Version:  2412                                  |
|   \\  /    A nd           | Website:  www.openfoam.com                      |
|    \\/     M anipulation  |                                                 |
\*---------------------------------------------------------------------------*/
Build  : _2c4871ff-20250317 OPENFOAM=2412 version=2412
Arch   : "LSB;label=32;scalar=64"
Exec   : surfaceFeatureExtract
Date   : May 27 2025
Time   : 17:04:18
Host   : Adam-PC
PID    : 31071
I/O    : uncollated
Case   : /home/adamb/OpenFOAM/adamb-v2412/run/contSpoilTurb3D/Base-Steady
nProcs : 1
trapFpe: Floating point exception trapping enabled (FOAM_SIGFPE).
fileModificationChecking : Monitoring run-time modified files using timeStampMaster (fileModificationSkew 5, maxFileModificationPolls 20)
allowSystemOperations : Allowing user-supplied system call operations

// * * * * * * * * * * * * * * * * * * * * * * * * * * * * * * * * * * * * * //
Create time


Note: Feature line extraction only valid on closed manifold surfaces

Reading surfaceFeatureExtractDict

Surfaces     : Container.stl
Output       : Container
Load options : offset
Write options: writeObj=yes writeVTK=off

Statistics:
Triangles    : 12 in 1 region(s)
Vertices     : 8
Bounding Box : (0 -7.7724 -3.048) (2.4384 0 3.048)

Constructing feature set from included angle 150
Selecting edges based purely on geometric tests: yes

Initial Feature set:
    points : 8
    edges  : 12
    of which
        region edges   : 0
        external edges : 12
        internal edges : 0

Final Feature set:
    points : 8
    of which
        convex             : 8
        concave            : 0
        mixed              : 0
        non-feature        : 0
    edges  : 12
    of which
        external edges     : 12
        internal edges     : 0
        flat edges         : 0
        open edges         : 0
        multiply connected : 0

Writing extendedFeatureEdgeMesh to "/home/adamb/OpenFOAM/adamb-v2412/run/contSpoilTurb3D/Base-Steady/constant/extendedFeatureEdgeMesh/Container.extendedFeatureEdgeMesh"

Writing extendedEdgeMesh components to "/home/adamb/OpenFOAM/adamb-v2412/run/contSpoilTurb3D/Base-Steady/constant/extendedFeatureEdgeMesh/Container"
Writing 8 convex feature points to "/home/adamb/OpenFOAM/adamb-v2412/run/contSpoilTurb3D/Base-Steady/constant/extendedFeatureEdgeMesh/Container_convexFeaturePts.obj"
Writing 0 concave feature points to "/home/adamb/OpenFOAM/adamb-v2412/run/contSpoilTurb3D/Base-Steady/constant/extendedFeatureEdgeMesh/Container_concaveFeaturePts.obj"
Writing 0 mixed feature points to "/home/adamb/OpenFOAM/adamb-v2412/run/contSpoilTurb3D/Base-Steady/constant/extendedFeatureEdgeMesh/Container_mixedFeaturePts.obj"
Writing 0 mixed feature point structure to "/home/adamb/OpenFOAM/adamb-v2412/run/contSpoilTurb3D/Base-Steady/constant/extendedFeatureEdgeMesh/Container_mixedFeaturePtsStructure.obj"
Writing 12 external edges to "/home/adamb/OpenFOAM/adamb-v2412/run/contSpoilTurb3D/Base-Steady/constant/extendedFeatureEdgeMesh/Container_externalEdges.obj"
Writing 0 internal edges to "/home/adamb/OpenFOAM/adamb-v2412/run/contSpoilTurb3D/Base-Steady/constant/extendedFeatureEdgeMesh/Container_internalEdges.obj"
Writing 0 flat edges to "/home/adamb/OpenFOAM/adamb-v2412/run/contSpoilTurb3D/Base-Steady/constant/extendedFeatureEdgeMesh/Container_flatEdges.obj"
Writing 0 open edges to "/home/adamb/OpenFOAM/adamb-v2412/run/contSpoilTurb3D/Base-Steady/constant/extendedFeatureEdgeMesh/Container_openEdges.obj"
Writing 0 multiple edges to "/home/adamb/OpenFOAM/adamb-v2412/run/contSpoilTurb3D/Base-Steady/constant/extendedFeatureEdgeMesh/Container_multipleEdges.obj"
Writing 0 region edges to "/home/adamb/OpenFOAM/adamb-v2412/run/contSpoilTurb3D/Base-Steady/constant/extendedFeatureEdgeMesh/Container_regionEdges.obj"
Writing 12 edge directions to "/home/adamb/OpenFOAM/adamb-v2412/run/contSpoilTurb3D/Base-Steady/constant/extendedFeatureEdgeMesh/Container_edgeDirections.obj"

Writing featureEdgeMesh to "/home/adamb/OpenFOAM/adamb-v2412/run/contSpoilTurb3D/Base-Steady/constant/triSurface/Container.eMesh"
Surfaces     : Spoiler.stl
Output       : Spoiler
Load options : offset
Write options: writeObj=yes writeVTK=off

Statistics:
Triangles    : 496 in 1 region(s)
Vertices     : 250
Bounding Box : (-0.306245 -1.17842 -2) (1.29394 0.295635 2)

Constructing feature set from included angle 150
Selecting edges based purely on geometric tests: yes

Initial Feature set:
    points : 8
    edges  : 254
    of which
        region edges   : 0
        external edges : 253
        internal edges : 1

Final Feature set:
    points : 250
    of which
        convex             : 6
        concave            : 0
        mixed              : 2
        non-feature        : 242
    edges  : 254
    of which
        external edges     : 253
        internal edges     : 1
        flat edges         : 0
        open edges         : 0
        multiply connected : 0

Writing extendedFeatureEdgeMesh to "/home/adamb/OpenFOAM/adamb-v2412/run/contSpoilTurb3D/Base-Steady/constant/extendedFeatureEdgeMesh/Spoiler.extendedFeatureEdgeMesh"

Writing extendedEdgeMesh components to "/home/adamb/OpenFOAM/adamb-v2412/run/contSpoilTurb3D/Base-Steady/constant/extendedFeatureEdgeMesh/Spoiler"
Writing 6 convex feature points to "/home/adamb/OpenFOAM/adamb-v2412/run/contSpoilTurb3D/Base-Steady/constant/extendedFeatureEdgeMesh/Spoiler_convexFeaturePts.obj"
Writing 0 concave feature points to "/home/adamb/OpenFOAM/adamb-v2412/run/contSpoilTurb3D/Base-Steady/constant/extendedFeatureEdgeMesh/Spoiler_concaveFeaturePts.obj"
Writing 2 mixed feature points to "/home/adamb/OpenFOAM/adamb-v2412/run/contSpoilTurb3D/Base-Steady/constant/extendedFeatureEdgeMesh/Spoiler_mixedFeaturePts.obj"
Writing 2 mixed feature point structure to "/home/adamb/OpenFOAM/adamb-v2412/run/contSpoilTurb3D/Base-Steady/constant/extendedFeatureEdgeMesh/Spoiler_mixedFeaturePtsStructure.obj"
Writing 253 external edges to "/home/adamb/OpenFOAM/adamb-v2412/run/contSpoilTurb3D/Base-Steady/constant/extendedFeatureEdgeMesh/Spoiler_externalEdges.obj"
Writing 1 internal edges to "/home/adamb/OpenFOAM/adamb-v2412/run/contSpoilTurb3D/Base-Steady/constant/extendedFeatureEdgeMesh/Spoiler_internalEdges.obj"
Writing 0 flat edges to "/home/adamb/OpenFOAM/adamb-v2412/run/contSpoilTurb3D/Base-Steady/constant/extendedFeatureEdgeMesh/Spoiler_flatEdges.obj"
Writing 0 open edges to "/home/adamb/OpenFOAM/adamb-v2412/run/contSpoilTurb3D/Base-Steady/constant/extendedFeatureEdgeMesh/Spoiler_openEdges.obj"
Writing 0 multiple edges to "/home/adamb/OpenFOAM/adamb-v2412/run/contSpoilTurb3D/Base-Steady/constant/extendedFeatureEdgeMesh/Spoiler_multipleEdges.obj"
Writing 0 region edges to "/home/adamb/OpenFOAM/adamb-v2412/run/contSpoilTurb3D/Base-Steady/constant/extendedFeatureEdgeMesh/Spoiler_regionEdges.obj"
Writing 254 edge directions to "/home/adamb/OpenFOAM/adamb-v2412/run/contSpoilTurb3D/Base-Steady/constant/extendedFeatureEdgeMesh/Spoiler_edgeDirections.obj"

Writing featureEdgeMesh to "/home/adamb/OpenFOAM/adamb-v2412/run/contSpoilTurb3D/Base-Steady/constant/triSurface/Spoiler.eMesh"
ExecutionTime = 0 s  ClockTime = 0 s

End

